
     RDKit          3D

 27 28  0  0  0  0  0  0  0  0999 V2000
  -11.3825   26.7296    7.5205 O   0  0  0  0  0  0  0  0  0  0  0  0
  -11.0039   27.6000    6.3915 C   0  0  0  0  0  0  0  0  0  0  0  0
  -10.3325   27.1126    5.3976 O   0  0  0  0  0  0  0  0  0  0  0  0
  -11.1742   29.1216    6.3976 C   0  0  0  0  0  0  0  0  0  0  0  0
   -9.0464   20.9915   11.2849 F   0  0  0  0  0  0  0  0  0  0  0  0
  -12.1304   29.3986    7.3554 F   0  0  0  0  0  0  0  0  0  0  0  0
   -9.7748   20.2924   10.2606 C   0  0  0  0  0  0  0  0  0  0  0  0
   -8.8700   19.4616    9.4780 F   0  0  0  0  0  0  0  0  0  0  0  0
   -8.9178   29.0502    7.5622 F   0  0  0  0  0  0  0  0  0  0  0  0
  -11.0033   21.1449    9.4043 C   0  0  0  0  0  0  0  0  0  0  0  0
   -9.8043   29.7476    6.8038 C   0  0  0  0  0  0  0  0  0  0  0  0
  -11.8478   24.2377    8.4778 C   0  0  0  0  0  0  0  0  0  0  0  0
  -10.8670   22.7264    8.6878 C   0  0  0  0  0  0  0  0  0  0  0  0
  -13.7158   25.9915    6.6016 C   0  0  0  0  0  0  0  0  0  0  0  0
   -9.3870   23.1424    8.5950 C   0  0  0  0  0  0  0  0  0  0  0  0
  -13.5290   25.5395    5.1581 C   0  0  0  0  0  0  0  0  0  0  0  0
   -9.1926   30.6881    5.8169 C   0  0  0  0  0  0  0  0  0  0  0  0
  -14.8760   26.0858    4.4426 C   0  0  0  0  0  0  0  0  0  0  0  0
  -15.5885   24.8986    3.6960 C   0  0  0  0  0  0  0  0  0  0  0  0
  -13.6561   26.4610    4.0129 O   0  0  0  0  0  0  0  0  0  0  0  0
  -16.9487   23.1974    5.0204 C   0  0  0  0  0  0  0  0  0  0  0  0
  -18.0642   22.8789    6.0212 C   0  0  0  0  0  0  0  0  0  0  0  0
  -19.2127   24.0956    8.0033 C   0  0  0  0  0  0  0  0  0  0  0  0
  -17.0286   24.6147    4.3545 C   0  0  0  0  0  0  0  0  0  0  0  0
  -19.0244   24.0413    6.4882 C   0  0  0  0  0  0  0  0  0  0  0  0
  -12.4846   25.7185    7.6738 C   0  0  0  0  0  0  0  0  0  0  0  0
   -9.7560   31.2617    7.1325 C   0  0  0  0  0  0  0  0  0  0  0  0
  2  1  1  0
  3  2  2  0
  4  2  1  0
  6  4  1  0
  7  5  1  0
  8  7  1  0
 10  7  1  0
 11  4  1  0
 11  9  1  0
 13 10  1  0
 13 12  1  0
 15 13  1  0
 16 14  1  0
 17 11  1  0
 18 16  1  0
 19 18  1  0
 20 16  1  0
 20 18  1  0
 22 21  1  0
 24 19  1  0
 24 21  1  0
 25 22  1  0
 25 23  1  0
 26  1  1  0
 26 12  1  0
 26 14  1  0
 27 11  1  0
 27 17  1  0
M  END
$$$$
