
     RDKit          3D

 30 32  0  0  0  0  0  0  0  0999 V2000
   25.4132  -15.5382  -11.7793 C   0  0  0  0  0  0  0  0  0  0  0  0
   24.7208  -16.7925  -12.2763 N   0  0  0  0  0  0  0  0  0  0  0  0
   24.5367  -14.3156  -11.8843 N   0  0  0  0  0  0  0  0  0  0  0  0
   24.9822  -13.0741  -11.0890 C   0  0  0  0  0  0  0  0  0  0  0  0
   26.4729  -13.0895  -10.9919 N   0  0  0  0  0  0  0  0  0  0  0  0
   24.2094  -14.0679  -13.2723 N   0  0  0  0  0  0  0  0  0  0  0  0
   23.2260  -17.1512  -12.1979 C   0  0  0  0  0  0  0  0  0  0  0  0
   22.5310  -17.4526  -13.8617 C   0  0  0  0  0  0  0  0  0  0  0  0
   21.4440  -17.0736   -9.7956 C   0  0  0  0  0  0  0  0  0  0  0  0
   21.6577  -18.4319  -15.0318 C   0  0  0  0  0  0  0  0  0  0  0  0
   20.4554  -16.2899  -10.5807 N   0  0  0  0  0  0  0  0  0  0  0  0
   20.8064  -18.1275   -8.6551 C   0  0  0  0  0  0  0  0  0  0  0  0
   21.2854  -19.8521  -14.6390 C   0  0  0  0  0  0  0  0  0  0  0  0
   22.4561  -20.8073  -14.4601 C   0  0  0  0  0  0  0  0  0  0  0  0
   19.4920  -19.1610   -8.6741 C   0  0  0  0  0  0  0  0  0  0  0  0
   18.0535  -18.4127   -8.6021 C   0  0  0  0  0  0  0  0  0  0  0  0
   17.2769  -17.9200   -7.1768 C   0  0  0  0  0  0  0  0  0  0  0  0
   22.5257  -17.7357  -10.7512 C   0  0  0  0  0  0  0  0  0  0  0  0
   23.2345  -21.1191  -15.7588 C   0  0  0  0  0  0  0  0  0  0  0  0
   22.7198  -22.5280  -15.7332 C   0  0  0  0  0  0  0  0  0  0  0  0
   18.4246  -17.7632   -6.0175 C   0  0  0  0  0  0  0  0  0  0  0  0
   18.7086  -16.3485   -5.4111 C   0  0  0  0  0  0  0  0  0  0  0  0
   23.5675  -23.5504  -15.0276 C   0  0  0  0  0  0  0  0  0  0  0  0
   19.5624  -15.3398   -5.9223 C   0  0  0  0  0  0  0  0  0  0  0  0
   22.8933  -23.2421  -13.7241 C   0  0  0  0  0  0  0  0  0  0  0  0
   19.8789  -14.8328   -7.4459 C   0  0  0  0  0  0  0  0  0  0  0  0
   17.6658  -13.9429   -8.5517 C   0  0  0  0  0  0  0  0  0  0  0  0
   18.8832  -13.5721   -7.6548 C   0  0  0  0  0  0  0  0  0  0  0  0
   21.9929  -22.2703  -14.4479 C   0  0  0  0  0  0  0  0  0  0  0  0
   24.2801  -23.1012  -13.9199 O   0  0  0  0  0  0  0  0  0  0  0  0
  2  1  1  0
  3  1  1  0
  4  3  1  0
  5  4  1  0
  6  3  1  0
  7  2  1  0
  8  7  1  0
 10  8  1  0
 11  9  1  0
 12  9  1  0
 13 10  1  0
 14 13  1  0
 15 12  1  0
 16 15  1  0
 17 16  1  0
 18  7  1  0
 18  9  1  0
 19 14  1  0
 20 19  1  0
 21 17  1  0
 22 21  1  0
 23 20  1  0
 24 22  2  3
 25 23  1  0
 26 24  1  0
 28 26  1  0
 28 27  1  0
 29 14  1  0
 29 20  1  0
 29 25  1  0
 30 23  1  0
 30 25  1  0
M  END
$$$$
