
     RDKit          3D

 45 53  0  0  0  0  0  0  0  0999 V2000
   -2.5019   31.8300   21.1358 C   0  0  0  0  0  0  0  0  0  0  0  0
   -3.0257   30.6597   20.2663 C   0  0  0  0  0  0  0  0  0  0  0  0
   -2.1256   29.4001   20.3600 C   0  0  0  0  0  0  0  0  0  0  0  0
   -2.8007   28.1297   19.9839 C   0  0  0  0  0  0  0  0  0  0  0  0
   -3.9290   28.2017   18.7267 C   0  0  0  0  0  0  0  0  0  0  0  0
   -1.5453   32.7662   20.4475 C   0  0  0  0  0  0  0  0  0  0  0  0
   -2.1759   33.0108   19.0411 C   0  0  0  0  0  0  0  0  0  0  0  0
   -2.0341   31.5826   19.6542 C   0  0  0  0  0  0  0  0  0  0  0  0
   -4.4299   27.2928   16.2145 C   0  0  0  0  0  0  0  0  0  0  0  0
   -3.5410   27.1035   14.9002 C   0  0  0  0  0  0  0  0  0  0  0  0
   -3.0675   25.9375   10.8746 C   0  0  0  0  0  0  0  0  0  0  0  0
   -2.1993   26.3761   16.4815 C   0  0  0  0  0  0  0  0  0  0  0  0
   -0.9818   27.4670   16.2525 C   0  0  0  0  0  0  0  0  0  0  0  0
   -2.5950   25.1265   13.6351 C   0  0  0  0  0  0  0  0  0  0  0  0
   -3.5978   23.9585   13.4294 C   0  0  0  0  0  0  0  0  0  0  0  0
   -0.9330   28.8726   15.2587 C   0  0  0  0  0  0  0  0  0  0  0  0
   -4.1781   25.0155   10.6282 C   0  0  0  0  0  0  0  0  0  0  0  0
   -0.4899   28.8811   13.7457 N   0  0  0  0  0  0  0  0  0  0  0  0
   -1.1200   28.2690   12.4382 C   0  0  0  0  0  0  0  0  0  0  0  0
   -5.9707   27.1025   15.8420 C   0  0  0  0  0  0  0  0  0  0  0  0
   -2.6001   25.8784   15.0191 C   0  0  0  0  0  0  0  0  0  0  0  0
   -3.1334   25.5704   12.2197 C   0  0  0  0  0  0  0  0  0  0  0  0
   -2.1057   29.6106   15.2864 O   0  0  0  0  0  0  0  0  0  0  0  0
   -0.3332   26.7464   12.2917 C   0  0  0  0  0  0  0  0  0  0  0  0
   -4.6547   30.8263   20.0460 C   0  0  0  0  0  0  0  0  0  0  0  0
   -4.6483   26.5653   11.6050 P   0  0  0  0  0  0  0  0  0  0  0  0
   -3.7511   24.1540   11.8651 C   0  0  0  0  0  0  0  0  0  0  0  0
    0.0935   27.4040    8.4774 C   0  0  0  0  0  0  0  0  0  0  0  0
   -4.8765   27.0001   19.4148 C   0  0  0  0  0  0  0  0  0  0  0  0
   -6.9068   27.2260   17.0578 C   0  0  0  0  0  0  0  0  0  0  0  0
   -1.9389   30.1157    8.9393 C   0  0  0  0  0  0  0  0  0  0  0  0
   -0.0645   32.2886   20.5170 C   0  0  0  0  0  0  0  0  0  0  0  0
   -3.6961   26.2582   17.0248 C   0  0  0  0  0  0  0  0  0  0  0  0
   -3.9726   22.8176   14.2379 C   0  0  0  0  0  0  0  0  0  0  0  0
   -0.9318   29.3466    9.5062 C   0  0  0  0  0  0  0  0  0  0  0  0
   -0.3284   25.4788   11.1846 C   0  0  0  0  0  0  0  0  0  0  0  0
    0.8175   32.9254   19.7737 C   0  0  0  0  0  0  0  0  0  0  0  0
   -5.6419   26.2108   20.5529 C   0  0  0  0  0  0  0  0  0  0  0  0
   -2.6625   28.8140   12.1427 C   0  0  0  0  0  0  0  0  0  0  0  0
    0.2002   28.7303    8.7511 C   0  0  0  0  0  0  0  0  0  0  0  0
   -4.4148   28.6186   17.0360 C   0  0  0  0  0  0  0  0  0  0  0  0
   -4.3148   21.5977   13.3732 C   0  0  0  0  0  0  0  0  0  0  0  0
   -4.9044   23.9400   14.1965 N   0  0  0  0  0  0  0  0  0  0  0  0
   -1.9968   30.9169   15.8926 C   0  0  0  0  0  0  0  0  0  0  0  0
   -0.6205   29.0146   11.0635 C   0  0  0  0  0  0  0  0  0  0  0  0
  2  1  1  0
  3  2  1  0
  4  3  1  0
  5  4  1  0
  6  1  1  0
  7  6  1  0
  8  1  1  0
  8  2  1  0
  8  6  1  0
  8  7  1  0
 10  9  1  0
 13 12  1  0
 15 14  1  0
 16 13  1  0
 17 11  1  0
 18 16  1  0
 19 18  1  0
 20  9  1  0
 21 10  1  0
 21 12  1  0
 21 14  1  0
 22 11  1  0
 22 14  1  0
 23 16  1  0
 24 19  1  0
 25  2  1  0
 26 11  1  0
 26 17  1  0
 26 22  1  0
 27 15  1  0
 27 17  1  0
 27 22  1  0
 29  5  1  0
 30 20  1  0
 32  6  1  0
 33  9  1  0
 33 12  1  0
 34 15  1  0
 35 31  2  0
 36 24  1  0
 37 32  2  0
 38 29  1  0
 39 19  1  0
 40 28  2  0
 40 35  1  0
 41  5  1  0
 41  9  1  0
 42 34  1  0
 43 15  1  0
 43 34  1  0
 44 23  1  0
 45 19  1  0
 45 35  1  0
M  END
$$$$
