
     RDKit          3D

 43 52  0  0  0  0  0  0  0  0999 V2000
    1.2786   32.3721   20.3778 O   0  0  0  0  0  0  0  0  0  0  0  0
  -17.3698   31.9645   29.9621 O   0  0  0  0  0  0  0  0  0  0  0  0
  -13.0520   37.2196   20.4748 O   0  0  0  0  0  0  0  0  0  0  0  0
  -13.2832   32.5407   24.1492 O   0  0  0  0  0  0  0  0  0  0  0  0
    6.9103   33.7212   19.8988 C   0  0  0  0  0  0  0  0  0  0  0  0
  -12.5202   35.2580   25.0747 P   0  0  0  0  0  0  0  0  0  0  0  0
   -9.5511   33.4202   24.6760 C   0  0  0  0  0  0  0  0  0  0  0  0
  -13.3286   35.8093   21.6185 C   0  0  0  0  0  0  0  0  0  0  0  0
   -8.9395   31.4146   25.6622 N   0  0  0  0  0  0  0  0  0  0  0  0
   -4.4558   31.1446   25.3255 C   0  0  0  0  0  0  0  0  0  0  0  0
   -8.9382   25.9302   24.1568 C   0  0  0  0  0  0  0  0  0  0  0  0
  -11.4771   35.8055   22.8792 N   0  0  0  0  0  0  0  0  0  0  0  0
  -12.1076   33.1599   23.2846 C   0  0  0  0  0  0  0  0  0  0  0  0
   -0.7241   31.8355   23.9622 N   0  0  0  0  0  0  0  0  0  0  0  0
  -15.6758   32.3561   29.3417 C   0  0  0  0  0  0  0  0  0  0  0  0
   -5.3899   29.0038   22.8798 C   0  0  0  0  0  0  0  0  0  0  0  0
  -18.4770   32.9881   31.2131 C   0  0  0  0  0  0  0  0  0  0  0  0
  -11.8497   32.2437   27.3763 C   0  0  0  0  0  0  0  0  0  0  0  0
   -6.8578   29.6259   24.5524 C   0  0  0  0  0  0  0  0  0  0  0  0
   -8.1766   28.2122   24.0821 C   0  0  0  0  0  0  0  0  0  0  0  0
    2.8151   32.9796   21.7583 C   0  0  0  0  0  0  0  0  0  0  0  0
   -6.5612   26.8822   22.7586 C   0  0  0  0  0  0  0  0  0  0  0  0
  -12.1171   36.4566   20.9543 N   0  0  0  0  0  0  0  0  0  0  0  0
   -2.7591   32.4467   21.1992 C   0  0  0  0  0  0  0  0  0  0  0  0
   -8.4698   31.5911   22.5676 C   0  0  0  0  0  0  0  0  0  0  0  0
   -9.4434   32.4340   27.4857 C   0  0  0  0  0  0  0  0  0  0  0  0
   -8.9565   30.1927   22.5997 C   0  0  0  0  0  0  0  0  0  0  0  0
   -6.3039   32.5836   21.2520 C   0  0  0  0  0  0  0  0  0  0  0  0
   -0.8792   31.8148   20.5299 C   0  0  0  0  0  0  0  0  0  0  0  0
   -8.8987   30.8749   24.5673 C   0  0  0  0  0  0  0  0  0  0  0  0
   -8.7631   29.8679   22.1622 C   0  0  0  0  0  0  0  0  0  0  0  0
  -14.2204   32.8629   27.3111 C   0  0  0  0  0  0  0  0  0  0  0  0
  -10.0682   32.1500   22.8322 C   0  0  0  0  0  0  0  0  0  0  0  0
  -10.1431   29.2280   23.6605 C   0  0  0  0  0  0  0  0  0  0  0  0
   -7.2496   32.6744   25.4381 C   0  0  0  0  0  0  0  0  0  0  0  0
   -9.8071   27.8461   22.1567 C   0  0  0  0  0  0  0  0  0  0  0  0
  -13.1146   31.1133   25.9931 C   0  0  0  0  0  0  0  0  0  0  0  0
  -10.6321   34.0897   26.5699 C   0  0  0  0  0  0  0  0  0  0  0  0
  -11.6440   30.9597   23.6231 C   0  0  0  0  0  0  0  0  0  0  0  0
   -5.0533   33.3295   17.3760 C   0  0  0  0  0  0  0  0  0  0  0  0
  -11.2880   31.9221   25.2307 C   0  0  0  0  0  0  0  0  0  0  0  0
  -15.1479   31.6373   25.3562 C   0  0  0  0  0  0  0  0  0  0  0  0
  -17.1258   33.7244   28.9014 C   0  0  0  0  0  0  0  0  0  0  0  0
  7  6  1  0
  8  3  1  0
  8  6  1  0
 10  9  1  0
 13  4  1  0
 13 12  1  0
 14 10  1  0
 15  2  1  0
 17  2  1  0
 17 15  1  0
 18  9  1  0
 18 13  1  0
 18 15  1  0
 19 16  1  0
 20 11  1  0
 20 19  1  0
 21  1  1  0
 21  5  1  0
 21 14  1  0
 22 11  1  0
 22 16  1  0
 23  8  1  0
 23 12  1  0
 27 25  1  0
 28 24  1  0
 29  1  1  0
 29 24  1  0
 30  9  1  0
 30 28  1  0
 31 20  1  0
 31 25  1  0
 33 13  1  0
 33 25  1  0
 33 31  1  0
 34 27  1  0
 35 27  1  0
 36 27  1  0
 36 34  1  0
 37 30  1  0
 37 32  1  0
 38  6  1  0
 38 26  1  0
 39  7  1  0
 39 34  1  0
 40 28  1  0
 41  4  1  0
 41 26  1  0
 41 39  1  0
 42 32  1  0
 42 37  1  0
 43 17  1  0
 43 32  1  0
M  END
$$$$
