
     RDKit          3D

  9  8  0  0  0  0  0  0  0  0999 V2000
   -1.8160   21.5648   15.5180 O   0  0  0  0  0  0  0  0  0  0  0  0
   -1.4837   20.8905   10.9234 O   0  0  0  0  0  0  0  0  0  0  0  0
   -0.4093   21.2760   12.9679 C   0  0  0  0  0  0  0  0  0  0  0  0
    0.0223   19.8323   13.0390 C   0  0  0  0  0  0  0  0  0  0  0  0
    0.9185   19.5420   12.0017 O   0  0  0  0  0  0  0  0  0  0  0  0
   -1.1034   21.7133   11.9608 N   0  0  0  0  0  0  0  0  0  0  0  0
   -2.2386   21.4066    9.8404 C   0  0  0  0  0  0  0  0  0  0  0  0
   -0.0298   22.2381   14.0615 C   0  0  0  0  0  0  0  0  0  0  0  0
   -1.2513   22.6723   14.8716 C   0  0  0  0  0  0  0  0  0  0  0  0
  4  3  1  0
  5  4  1  0
  6  2  1  0
  6  3  2  3
  7  2  1  0
  8  3  1  0
  9  1  1  0
  9  8  1  0
M  END
$$$$
