
     RDKit          3D

 11 12  0  0  0  0  0  0  0  0999 V2000
  -10.8764   37.9388    1.7451 O   0  0  0  0  0  0  0  0  0  0  0  0
  -10.4128   39.2379    1.9477 C   0  0  0  0  0  0  0  0  0  0  0  0
   -8.9246   39.3137    2.1022 C   0  0  0  0  0  0  0  0  0  0  0  0
   -8.0402   38.4076    1.2490 C   0  0  0  0  0  0  0  0  0  0  0  0
   -9.6057   39.8596    0.8087 C   0  0  0  0  0  0  0  0  0  0  0  0
   -8.9364   38.2292   -1.2215 C   0  0  0  0  0  0  0  0  0  0  0  0
  -10.0983   37.2135   -1.0932 C   0  0  0  0  0  0  0  0  0  0  0  0
   -8.5494   39.0958    0.0041 C   0  0  0  0  0  0  0  0  0  0  0  0
  -11.4680   37.8998   -1.2981 C   0  0  0  0  0  0  0  0  0  0  0  0
  -12.5189   37.0006   -1.0647 O   0  0  0  0  0  0  0  0  0  0  0  0
   -9.9268   36.0944   -2.1344 C   0  0  0  0  0  0  0  0  0  0  0  0
  2  1  1  0
  3  2  1  0
  4  3  1  0
  5  2  1  0
  5  3  1  0
  7  6  1  0
  8  4  1  0
  8  5  1  0
  8  6  1  0
  9  7  1  0
 10  9  1  0
 11  7  1  0
M  END
$$$$
