
     RDKit          3D

 10 11  0  0  0  0  0  0  0  0999 V2000
  -11.7274   33.0027   15.3432 C   0  0  0  0  0  0  0  0  0  0  0  0
   -9.5258   32.8997   17.2720 As  0  0  0  0  0  3  0  0  0  0  0  0
   -8.0659   31.4222   19.1551 O   0  0  0  0  0  0  0  0  0  0  0  0
   -8.0198   30.0785   15.9566 O   0  0  0  0  0  0  0  0  0  0  0  0
   -7.7833   31.2082   16.7500 C   0  0  0  0  0  0  0  0  0  0  0  0
   -8.1959   32.3766   16.0767 O   0  0  0  0  0  0  0  0  0  0  0  0
  -12.2078   31.7465   17.0261 C   0  0  0  0  0  0  0  0  0  0  0  0
  -10.9513   32.0178   16.2083 C   0  0  0  0  0  0  0  0  0  0  0  0
  -12.9815   32.7312   16.1615 C   0  0  0  0  0  0  0  0  0  0  0  0
   -8.7312   31.2487   17.9298 C   0  0  0  0  0  0  0  0  0  0  0  0
  5  4  1  0
  6  2  1  0
  6  5  1  0
  8  1  1  0
  8  2  1  0
  8  7  1  0
  9  1  1  0
  9  7  1  0
 10  2  1  0
 10  3  1  0
 10  5  1  0
M  END
$$$$
