
     RDKit          3D

 11 14  0  0  0  0  0  0  0  0999 V2000
  -12.1951   37.3300   16.3937 O   0  0  0  0  0  0  0  0  0  0  0  0
  -11.2910   36.7605   17.2981 C   0  0  0  0  0  0  0  0  0  0  0  0
  -10.7368   37.8031   18.2587 C   0  0  0  0  0  0  0  0  0  0  0  0
   -9.8701   37.3069   17.0834 C   0  0  0  0  0  0  0  0  0  0  0  0
  -11.2991   39.1370   17.9859 N   0  0  0  0  0  0  0  0  0  0  0  0
  -11.3695   39.9852   19.2055 C   0  0  0  0  0  0  0  0  0  0  0  0
  -11.7965   36.8254   18.7181 C   0  0  0  0  0  0  0  0  0  0  0  0
  -10.9936   39.3328   20.3897 O   0  0  0  0  0  0  0  0  0  0  0  0
   -9.1329   35.9448   16.9666 C   0  0  0  0  0  0  0  0  0  0  0  0
  -10.2788   40.1798   18.2599 C   0  0  0  0  0  0  0  0  0  0  0  0
   -8.5951   36.9474   17.8945 C   0  0  0  0  0  0  0  0  0  0  0  0
  2  1  1  0
  3  2  1  0
  4  2  1  0
  4  3  1  0
  5  3  1  0
  6  5  1  0
  7  2  1  0
  7  3  1  0
  8  6  1  0
  9  4  1  0
 10  5  1  0
 10  6  1  0
 11  4  1  0
 11  9  1  0
M  END
$$$$
