
     RDKit          3D

 11 11  0  0  0  0  0  0  0  0999 V2000
   -6.9204   30.4827   15.8765 O   0  0  0  0  0  0  0  0  0  0  0  0
   -8.4388   32.2547   16.3584 C   0  0  0  0  0  0  0  0  0  0  0  0
   -7.6784   31.4943   15.2478 C   0  0  0  0  0  0  0  0  0  0  0  0
   -8.6249   30.7826   14.2306 C   0  0  0  0  0  0  0  0  0  0  0  0
   -9.5414   31.6186   13.3008 C   0  0  0  0  0  0  0  0  0  0  0  0
   -8.7986   32.7201   12.5073 C   0  0  0  0  0  0  0  0  0  0  0  0
   -8.4039   33.9518   13.3321 C   0  0  0  0  0  0  0  0  0  0  0  0
   -7.0874   33.8200   14.1189 C   0  0  0  0  0  0  0  0  0  0  0  0
   -6.6458   32.4002   14.5249 C   0  0  0  0  0  0  0  0  0  0  0  0
  -10.8621   32.0587   13.9879 C   0  0  0  0  0  0  0  0  0  0  0  0
  -11.8763   32.6524   13.0090 C   0  0  0  0  0  0  0  0  0  0  0  0
  3  1  1  0
  3  2  1  0
  4  3  1  0
  5  4  1  0
  6  5  1  0
  7  6  1  0
  8  7  1  0
  9  3  1  0
  9  8  1  0
 10  5  1  0
 11 10  1  0
M  END
$$$$
