
     RDKit          3D

 11 13  0  0  0  0  0  0  0  0999 V2000
  -10.3631   30.9039   13.3335 C   0  0  0  0  0  0  0  0  0  0  0  0
  -11.0331   29.5254   15.4076 C   0  0  0  0  0  0  0  0  0  0  0  0
  -10.5449   28.2003   16.1818 C   0  0  0  0  0  0  0  0  0  0  0  0
  -12.3578   28.3634   17.4719 C   0  0  0  0  0  0  0  0  0  0  0  0
  -11.3681   27.7673   19.0406 C   0  0  0  0  0  0  0  0  0  0  0  0
  -10.8966   28.3136   17.6801 C   0  0  0  0  0  0  0  0  0  0  0  0
  -12.6232   29.7469   15.2628 C   0  0  0  0  0  0  0  0  0  0  0  0
  -12.7918   28.3625   18.8054 C   0  0  0  0  0  0  0  0  0  0  0  0
  -13.4705   29.9818   16.5059 N   0  0  0  0  0  0  0  0  0  0  0  0
  -12.8848   29.6774   17.8352 C   0  0  0  0  0  0  0  0  0  0  0  0
  -10.3689   29.5288   14.0073 C   0  0  0  0  0  0  0  0  0  0  0  0
  3  2  1  0
  6  3  1  0
  6  4  1  0
  6  5  1  0
  7  2  1  0
  8  4  1  0
  8  5  1  0
  9  7  1  0
 10  4  1  0
 10  8  1  0
 10  9  1  0
 11  1  1  0
 11  2  1  0
M  END
$$$$
