
     RDKit          3D

 11 12  0  0  0  0  0  0  0  0999 V2000
  -13.5561   34.7585   19.6933 O   0  0  0  0  0  0  0  0  0  0  0  0
  -13.4506   34.2664   20.9053 C   0  0  0  0  0  0  0  0  0  0  0  0
  -14.4352   33.5599   21.4536 N   0  0  0  0  0  2  0  0  0  0  0  0
  -15.4517   34.1899   22.0817 C   0  0  0  0  0  0  0  0  0  0  0  0
  -13.8217   34.9862   22.0057 N   0  0  0  0  0  2  0  0  0  0  0  0
  -15.9938   33.3306   23.1509 C   0  0  0  0  0  0  0  0  0  0  0  0
  -16.0492   33.5329   24.5547 C   0  0  0  0  0  0  0  0  0  0  0  0
  -16.8667   32.4231   22.5103 C   0  0  0  0  0  0  0  0  0  0  0  0
  -17.8625   31.8030   23.2691 C   0  0  0  0  0  0  0  0  0  0  0  0
  -17.9762   32.0617   24.6411 C   0  0  0  0  0  0  0  0  0  0  0  0
  -17.0492   32.9131   25.2972 C   0  0  0  0  0  0  0  0  0  0  0  0
  2  1  1  0
  3  2  1  0
  4  3  1  0
  5  2  1  0
  5  4  1  0
  6  4  1  0
  7  6  4  0
  8  6  4  0
  9  8  4  0
 10  9  4  0
 11  7  4  0
 11 10  4  0
M  RAD  2   3   2   5   2
M  END
$$$$
