
     RDKit          3D

 12 12  0  0  0  0  0  0  0  0999 V2000
   -5.3410   33.0080    1.0189 O   0  0  0  0  0  0  0  0  0  0  0  0
   -5.8572   33.8730    1.9909 C   0  0  0  0  0  0  0  0  0  0  0  0
   -6.5106   34.8993    1.6566 O   0  0  0  0  0  0  0  0  0  0  0  0
   -5.5755   33.6002    3.4405 C   0  0  0  0  0  0  0  0  0  0  0  0
   -6.0490   34.8739    5.3504 O   0  0  0  0  0  0  0  0  0  0  0  0
   -5.9267   32.1701    3.8512 C   0  0  0  0  0  0  0  0  0  0  0  0
   -4.9164   31.5707    4.6351 O   0  0  0  0  0  0  0  0  0  0  0  0
   -6.6130   34.1793    4.3102 N   0  0  0  0  0  0  0  0  0  0  0  0
   -6.9870   32.8194    4.7281 C   0  0  0  0  0  0  0  0  0  0  0  0
   -5.4930   33.2206   -0.3829 C   0  0  0  0  0  0  0  0  0  0  0  0
   -4.5399   34.3064   -0.8684 C   0  0  0  0  0  0  0  0  0  0  0  0
   -4.0198   30.8898    3.7875 C   0  0  0  0  0  0  0  0  0  0  0  0
  2  1  1  0
  3  2  2  0
  4  2  1  0
  6  4  1  0
  7  6  1  0
  8  4  1  0
  8  5  1  0
  9  6  1  0
  9  8  1  0
 10  1  1  0
 11 10  1  0
 12  7  1  0
M  END
$$$$
