
     RDKit          3D

 14 14  0  0  0  0  0  0  0  0999 V2000
  -10.7938   21.7399   13.9930 O   0  0  0  0  0  0  0  0  0  0  0  0
  -10.9051   21.6701   15.3913 C   0  0  0  0  0  0  0  0  0  0  0  0
  -10.5431   20.3967   15.8375 O   0  0  0  0  0  0  0  0  0  0  0  0
   -9.8066   22.4267   14.7306 C   0  0  0  0  0  0  0  0  0  0  0  0
   -9.8875   23.9398   14.4217 C   0  0  0  0  0  0  0  0  0  0  0  0
  -12.7692   24.3565   14.5099 Br  0  0  0  0  0  0  0  0  0  0  0  0
  -10.7959   24.7827   16.6694 C   0  0  0  0  0  0  0  0  0  0  0  0
  -11.9045   25.5105   17.4569 C   0  0  0  0  0  0  0  0  0  0  0  0
  -12.1667   26.9841   17.0523 C   0  0  0  0  0  0  0  0  0  0  0  0
  -13.3804   27.5159   17.8423 C   0  0  0  0  0  0  0  0  0  0  0  0
  -13.8634   28.8380   17.3038 C   0  0  0  0  0  0  0  0  0  0  0  0
  -10.9314   27.8717   17.3034 C   0  0  0  0  0  0  0  0  0  0  0  0
  -10.9670   24.7884   15.1324 C   0  0  0  0  0  0  0  0  0  0  0  0
  -14.2395   29.8289   18.1172 C   0  0  0  0  0  0  0  0  0  0  0  0
  2  1  1  0
  3  2  1  0
  4  1  1  0
  4  2  1  0
  5  4  1  0
  8  7  1  0
  9  8  1  0
 10  9  1  0
 11 10  1  0
 12  9  1  0
 13  5  1  0
 13  6  1  0
 13  7  1  0
 14 11  2  0
M  END
$$$$
