
     RDKit          3D

 16 16  0  0  0  0  0  0  0  0999 V2000
  -10.8425   46.8906    7.3670 O   0  0  0  0  0  0  0  0  0  0  0  0
   -9.8866   46.3182    6.5157 C   0  0  0  0  0  0  0  0  0  0  0  0
   -8.7335   45.9986    7.2546 O   0  0  0  0  0  0  0  0  0  0  0  0
  -10.4426   45.0334    5.8792 C   0  0  0  0  0  0  0  0  0  0  0  0
  -11.6555   45.2910    4.9374 C   0  0  0  0  0  0  0  0  0  0  0  0
  -13.0202   45.3118    5.7270 C   0  0  0  0  0  0  0  0  0  0  0  0
  -13.8866   46.5052    5.2496 C   0  0  0  0  0  0  0  0  0  0  0  0
  -13.8199   43.9605    5.6360 C   0  0  0  0  0  0  0  0  0  0  0  0
  -15.1490   46.7175    6.1043 C   0  0  0  0  0  0  0  0  0  0  0  0
  -12.9582   42.7706    5.2803 C   0  0  0  0  0  0  0  0  0  0  0  0
  -11.6916   44.2487    3.7995 C   0  0  0  0  0  0  0  0  0  0  0  0
  -15.9145   47.9876    5.7027 C   0  0  0  0  0  0  0  0  0  0  0  0
  -11.9917   42.8948    4.3665 C   0  0  0  0  0  0  0  0  0  0  0  0
  -17.4320   47.0846    3.9522 C   0  0  0  0  0  0  0  0  0  0  0  0
  -16.4506   47.9230    4.2962 C   0  0  0  0  0  0  0  0  0  0  0  0
  -14.5280   43.7088    6.8245 O   0  0  0  0  0  0  0  0  0  0  0  0
  2  1  1  0
  3  2  1  0
  4  2  1  0
  5  4  1  0
  6  5  1  0
  7  6  1  0
  8  6  1  0
  9  7  1  0
 10  8  1  0
 11  5  1  0
 12  9  1  0
 13 10  2  0
 13 11  1  0
 15 12  1  0
 15 14  2  0
 16  8  1  0
M  END
$$$$
