
     RDKit          3D

 13 15  0  0  0  0  0  0  0  0999 V2000
  -13.3265   29.8757    3.5458 O   0  0  0  0  0  0  0  0  0  0  0  0
  -12.5370   30.2097    2.4400 C   0  0  0  0  0  0  0  0  0  0  0  0
  -13.1646   31.2351    1.4959 C   0  0  0  0  0  0  0  0  0  0  0  0
  -12.0545   31.6548    2.4583 C   0  0  0  0  0  0  0  0  0  0  0  0
  -15.6761   30.8621    1.3534 C   0  0  0  0  0  0  0  0  0  0  0  0
  -10.6900   31.8568    1.7985 C   0  0  0  0  0  0  0  0  0  0  0  0
  -15.7243   30.8127   -0.1817 C   0  0  0  0  0  0  0  0  0  0  0  0
  -14.5579   31.7845    1.8523 C   0  0  0  0  0  0  0  0  0  0  0  0
   -9.5921   32.1340    2.7371 C   0  0  0  0  0  0  0  0  0  0  0  0
  -10.1521   33.7512    1.7532 Se  0  0  0  0  0  2  0  0  0  0  0  0
  -16.5320   31.9224   -0.8445 C   0  0  0  0  0  0  0  0  0  0  0  0
  -16.0263   32.3536   -2.2205 C   0  0  0  0  0  0  0  0  0  0  0  0
  -17.0974   30.5082   -0.7739 C   0  0  0  0  0  0  0  0  0  0  0  0
  2  1  1  0
  3  2  1  0
  4  2  1  0
  4  3  1  0
  6  4  1  0
  7  5  1  0
  8  3  1  0
  8  5  1  0
  9  6  1  0
 10  6  1  0
 10  9  1  0
 11  7  1  0
 12 11  1  0
 13  7  1  0
 13 11  1  0
M  END
$$$$
