
     RDKit          3D

 16 16  0  0  0  0  0  0  0  0999 V2000
  -14.4971   29.3552   21.3776 C   0  0  0  0  0  0  0  0  0  0  0  0
  -15.7060   28.7864   20.6601 C   0  0  0  0  0  0  0  0  0  0  0  0
  -16.6723   29.4431   19.9853 C   0  0  0  0  0  0  0  0  0  0  0  0
  -16.6658   30.8766   19.5297 C   0  0  0  0  0  0  0  0  0  0  0  0
  -13.6183   30.3943   20.6179 C   0  0  0  0  0  0  0  0  0  0  0  0
  -15.6724   31.7948   20.2496 C   0  0  0  0  0  0  0  0  0  0  0  0
  -15.9887   33.2134   19.9648 N   0  0  0  0  0  0  0  0  0  0  0  0
  -16.6477   34.6466   18.0729 C   0  0  0  0  0  0  0  0  0  0  0  0
  -14.2816   31.4802   19.8739 N   0  0  0  0  0  0  0  0  0  0  0  0
  -16.2249   35.4252   16.7793 C   0  0  0  0  0  0  0  0  0  0  0  0
  -15.5758   33.6962   18.6315 C   0  0  0  0  0  0  0  0  0  0  0  0
  -15.6526   34.5034   15.6690 C   0  0  0  0  0  0  0  0  0  0  0  0
  -16.6957   33.5500   15.0779 C   0  0  0  0  0  0  0  0  0  0  0  0
  -15.2083   36.5646   17.0746 C   0  0  0  0  0  0  0  0  0  0  0  0
  -15.7844   37.7080   17.9133 C   0  0  0  0  0  0  0  0  0  0  0  0
  -14.8067   29.7144   22.8406 C   0  0  0  0  0  0  0  0  0  0  0  0
  2  1  1  0
  3  2  2  0
  4  3  1  0
  5  1  1  0
  6  4  1  0
  7  6  1  0
  9  5  1  0
  9  6  1  0
 10  8  1  0
 11  7  1  0
 11  8  1  0
 12 10  1  0
 13 12  1  0
 14 10  1  0
 15 14  1  0
 16  1  1  0
M  END
$$$$
