
     RDKit          3D

 19 22  0  0  0  0  0  0  0  0999 V2000
   -1.1602   26.0386    3.5898 O   0  0  0  0  0  0  0  0  0  0  0  0
   -0.4193   25.5411    2.5162 C   0  0  0  0  0  0  0  0  0  0  0  0
    0.2442   26.7288    1.7738 C   0  0  0  0  0  0  0  0  0  0  0  0
   -1.2253   24.5962    1.6261 C   0  0  0  0  0  0  0  0  0  0  0  0
    0.8884   26.2929    0.4842 C   0  0  0  0  0  0  0  0  0  0  0  0
   -1.0677   23.1295    2.1115 C   0  0  0  0  0  0  0  0  0  0  0  0
    0.2443   25.4564   -0.3343 C   0  0  0  0  0  0  0  0  0  0  0  0
   -1.0726   24.8937    0.1141 C   0  0  0  0  0  0  0  0  0  0  0  0
   -2.4194   22.3645    2.2225 C   0  0  0  0  0  0  0  0  0  0  0  0
   -2.3363   20.9945    1.4998 C   0  0  0  0  0  0  0  0  0  0  0  0
   -2.2929   25.4664   -0.5969 C   0  0  0  0  0  0  0  0  0  0  0  0
   -1.8382   24.0442   -0.8929 C   0  0  0  0  0  0  0  0  0  0  0  0
   -3.6955   20.2670    1.3943 C   0  0  0  0  0  0  0  0  0  0  0  0
   -3.8250   19.1281    2.4211 C   0  0  0  0  0  0  0  0  0  0  0  0
   -1.9380   25.6362    2.4875 C   0  0  0  0  0  0  0  0  0  0  0  0
   -2.8201   22.1830    3.6980 C   0  0  0  0  0  0  0  0  0  0  0  0
   -5.2050   18.4519    2.3839 C   0  0  0  0  0  0  0  0  0  0  0  0
   -6.2975   19.3113    3.0377 C   0  0  0  0  0  0  0  0  0  0  0  0
   -7.6205   18.5544    3.1129 C   0  0  0  0  0  0  0  0  0  0  0  0
  2  1  1  0
  3  2  1  0
  4  2  1  0
  5  3  1  0
  6  4  1  0
  7  5  2  0
  8  4  1  0
  8  7  1  0
  9  6  1  0
 10  9  1  0
 11  8  1  0
 12  8  1  0
 12 11  1  0
 13 10  1  0
 14 13  1  0
 15  1  1  0
 15  2  1  0
 15  4  1  0
 16  9  1  0
 17 14  1  0
 18 17  1  0
 19 18  1  0
M  END
$$$$
