
     RDKit          3D

 19 22  0  0  0  0  0  0  0  0999 V2000
    4.5911   23.3475    6.9653 O   0  0  0  0  0  0  0  0  0  0  0  0
    5.7953   23.8118    6.3970 C   0  0  0  0  0  0  0  0  0  0  0  0
    6.3156   24.8713    7.1681 O   0  0  0  0  0  0  0  0  0  0  0  0
    5.4895   24.3162    4.9568 C   0  0  0  0  0  0  0  0  0  0  0  0
    4.2915   25.2545    4.9409 C   0  0  0  0  0  0  0  0  0  0  0  0
    2.9748   24.8233    4.2881 C   0  0  0  0  0  0  0  0  0  0  0  0
    2.5141   26.0187    3.4892 C   0  0  0  0  0  0  0  0  0  0  0  0
    6.7064   24.9675    4.2651 C   0  0  0  0  0  0  0  0  0  0  0  0
    4.3171   26.5056    5.5056 C   0  0  0  0  0  0  0  0  0  0  0  0
    6.9699   23.0465    6.1671 S   0  0  0  0  0  4  0  0  0  0  0  0
    9.8605   25.1032    6.5431 O   0  0  0  0  0  0  0  0  0  0  0  0
    3.0529   27.3922    5.4461 C   0  0  0  0  0  0  0  0  0  0  0  0
    3.0191   26.6642    2.2221 C   0  0  0  0  0  0  0  0  0  0  0  0
    1.8954   26.6453    4.7121 C   0  0  0  0  0  0  0  0  0  0  0  0
    6.3674   25.3746    2.9728 O   0  0  0  0  0  0  0  0  0  0  0  0
    6.8049   22.6491    6.3426 C   0  0  0  0  0  0  0  0  0  0  0  0
    1.8474   25.2035    5.2817 C   0  0  0  0  0  0  0  0  0  0  0  0
    1.6815   25.8837    2.2265 C   0  0  0  0  0  0  0  0  0  0  0  0
    1.7396   24.5558    1.4690 C   0  0  0  0  0  0  0  0  0  0  0  0
  2  1  1  0
  3  2  1  0
  4  2  1  0
  5  4  1  0
  6  5  1  0
  7  6  1  0
  8  4  1  0
  9  5  2  0
 11 10  1  0
 12  9  1  0
 13  7  1  0
 14  7  1  0
 14 12  1  0
 15  8  1  0
 15 10  1  0
 16  2  1  0
 16 10  1  0
 17  6  1  0
 17 14  1  0
 18  7  1  0
 18 13  1  0
 19 18  1  0
M  END
$$$$
