
     RDKit          3D

 19 23  0  0  0  0  0  0  0  0999 V2000
   -6.6523   24.3173    7.7396 C   0  0  0  0  0  0  0  0  0  0  0  0
   -8.1880   24.2970    7.5417 N   0  0  0  0  0  0  0  0  0  0  0  0
   -9.3514   24.5467    6.6004 C   0  0  0  0  0  0  0  0  0  0  0  0
   -6.2952   26.4635    9.3226 C   0  0  0  0  0  0  0  0  0  0  0  0
   -6.3010   27.6076   10.4643 C   0  0  0  0  0  0  0  0  0  0  0  0
  -10.8100   26.2724    5.2067 N   0  0  0  0  0  0  0  0  0  0  0  0
  -10.4960   25.6839    6.5119 C   0  0  0  0  0  0  0  0  0  0  0  0
  -11.4154   24.5654    6.6855 C   0  0  0  0  0  0  0  0  0  0  0  0
  -10.9645   26.3338    7.9702 C   0  0  0  0  0  0  0  0  0  0  0  0
   -4.7796   25.9402    8.6868 C   0  0  0  0  0  0  0  0  0  0  0  0
  -10.8134   23.8983   10.1645 C   0  0  0  0  0  0  0  0  0  0  0  0
   -9.7695   21.8497   10.7557 C   0  0  0  0  0  0  0  0  0  0  0  0
  -11.1535   25.0005    8.9267 C   0  0  0  0  0  0  0  0  0  0  0  0
  -10.0724   22.7610    9.7261 O   0  0  0  0  0  0  0  0  0  0  0  0
   -5.9622   25.0947    8.8545 C   0  0  0  0  0  0  0  0  0  0  0  0
   -6.3037   23.6172    9.1411 C   0  0  0  0  0  0  0  0  0  0  0  0
   -8.9929   24.8132    8.5683 C   0  0  0  0  0  0  0  0  0  0  0  0
   -5.3741   28.6490   10.1455 O   0  0  0  0  0  0  0  0  0  0  0  0
  -10.4267   24.2284    7.8539 C   0  0  0  0  0  0  0  0  0  0  0  0
  2  1  1  0
  3  2  1  0
  5  4  1  0
  7  3  1  0
  7  6  1  0
  8  7  1  0
  9  7  1  0
 10  4  1  0
 13  9  1  0
 13 11  1  0
 14 11  1  0
 14 12  1  0
 15  1  1  0
 15  4  1  0
 15 10  1  0
 16  1  1  0
 16 15  1  0
 17  2  1  0
 18  5  1  0
 19  3  1  0
 19  8  1  0
 19 13  1  0
 19 17  1  0
M  END
$$$$
