
     RDKit          3D

 29 32  0  0  0  0  0  0  0  0999 V2000
   -4.8787   25.9141    9.6495 O   0  0  0  0  0  0  0  0  0  0  0  0
   -4.4837   27.0335    9.2379 C   0  0  0  0  0  0  0  0  0  0  0  0
   -3.4987   27.6911    9.9487 O   0  0  0  0  0  0  0  0  0  0  0  0
   -5.0306   27.5600    7.9335 C   0  0  0  0  0  0  0  0  0  0  0  0
   -5.1585   29.0080    7.9725 O   0  0  0  0  0  0  0  0  0  0  0  0
   -4.0358   29.7909    7.4885 C   0  0  0  0  0  0  0  0  0  0  0  0
   -3.9490   32.3901    6.3428 C   0  0  0  0  0  0  0  0  0  0  0  0
   -5.0504   33.4038    5.7115 C   0  0  0  0  0  0  0  0  0  0  0  0
   -4.6199   30.9881    6.6433 C   0  0  0  0  0  0  0  0  0  0  0  0
   -3.8356   29.7121    6.0667 C   0  0  0  0  0  0  0  0  0  0  0  0
   -4.7368   34.9297    5.7187 C   0  0  0  0  0  0  0  0  0  0  0  0
   -6.4304   33.0001    6.0891 N   0  0  0  0  0  0  0  0  0  0  0  0
   -4.1579   35.6507    4.4456 C   0  0  0  0  0  0  0  0  0  0  0  0
   -7.0434   33.7420    7.2074 C   0  0  0  0  0  0  0  0  0  0  0  0
   -2.8234   33.7997    2.9059 C   0  0  0  0  0  0  0  0  0  0  0  0
   -7.3670   33.0318    8.4798 C   0  0  0  0  0  0  0  0  0  0  0  0
   -6.1017   33.8350    8.4753 C   0  0  0  0  0  0  0  0  0  0  0  0
   -3.9862   32.8155    2.6287 C   0  0  0  0  0  0  0  0  0  0  0  0
   -5.4288   33.3662    2.4678 C   0  0  0  0  0  0  0  0  0  0  0  0
   -6.5975   32.5998    2.5915 C   0  0  0  0  0  0  0  0  0  0  0  0
   -7.0633   31.7211    3.7509 C   0  0  0  0  0  0  0  0  0  0  0  0
   -6.3266   30.4073    3.9208 C   0  0  0  0  0  0  0  0  0  0  0  0
   -7.4321   32.4415    5.1269 C   0  0  0  0  0  0  0  0  0  0  0  0
   -2.8275   35.0762    3.8762 C   0  0  0  0  0  0  0  0  0  0  0  0
   -2.3662   29.7880    5.5172 C   0  0  0  0  0  0  0  0  0  0  0  0
   -1.1708   30.0579    6.3774 C   0  0  0  0  0  0  0  0  0  0  0  0
    0.3118   29.9997    5.8465 C   0  0  0  0  0  0  0  0  0  0  0  0
   -1.6850   28.7948    6.3134 O   0  0  0  0  0  0  0  0  0  0  0  0
   -1.7265   34.9565    4.9509 C   0  0  0  0  0  0  0  0  0  0  0  0
  2  1  2  0
  3  2  1  0
  4  2  1  0
  5  4  1  0
  6  5  1  0
  8  7  1  0
  9  6  1  0
  9  7  1  0
 10  6  1  0
 10  9  1  0
 11  8  1  0
 12  8  1  0
 13 11  1  0
 14 12  1  0
 16 14  1  0
 17 14  1  0
 17 16  1  0
 18 15  1  0
 19 18  1  0
 20 19  2  0
 21 20  1  0
 22 21  1  0
 23 12  1  0
 23 21  1  0
 24 13  1  0
 24 15  1  0
 25 10  1  0
 26 25  1  0
 27 26  1  0
 28 25  1  0
 28 26  1  0
 29 24  1  0
M  END
$$$$
