
     RDKit          3D

 34 44  0  0  0  0  0  0  0  0999 V2000
  -10.3876   30.3691    3.4405 O   0  0  0  0  0  0  0  0  0  0  0  0
   -9.0690   30.5133    3.8947 C   0  0  0  0  0  0  0  0  0  0  0  0
   -8.8669   30.6235    5.4398 C   0  0  0  0  0  0  0  0  0  0  0  0
  -10.2053   30.5989    6.2446 C   0  0  0  0  0  0  0  0  0  0  0  0
   -7.9373   31.8696    5.6975 C   0  0  0  0  0  0  0  0  0  0  0  0
   -6.5436   31.7558    5.1748 N   0  0  0  0  0  0  0  0  0  0  0  0
  -10.1582   29.6529    7.4439 C   0  0  0  0  0  0  0  0  0  0  0  0
   -7.8698   32.3525    7.1880 C   0  0  0  0  0  0  0  0  0  0  0  0
   -7.0852   31.4077    8.1170 C   0  0  0  0  0  0  0  0  0  0  0  0
   -7.1858   33.7561    7.3258 C   0  0  0  0  0  0  0  0  0  0  0  0
   -5.7692   31.4417    8.9359 C   0  0  0  0  0  0  0  0  0  0  0  0
   -5.4827   32.7022    9.7785 C   0  0  0  0  0  0  0  0  0  0  0  0
   -6.2224   34.0918    6.1996 C   0  0  0  0  0  0  0  0  0  0  0  0
   -5.6240   31.1111    6.1684 C   0  0  0  0  0  0  0  0  0  0  0  0
   -8.6850   33.5419    7.5950 C   0  0  0  0  0  0  0  0  0  0  0  0
   -5.7426   31.8422    7.5220 C   0  0  0  0  0  0  0  0  0  0  0  0
   -6.0698   33.1489    4.9890 C   0  0  0  0  0  0  0  0  0  0  0  0
   -9.0388   33.7757    9.0767 C   0  0  0  0  0  0  0  0  0  0  0  0
   -5.2761   33.8875    8.8168 C   0  0  0  0  0  0  0  0  0  0  0  0
   -9.7796   32.5878    9.7016 C   0  0  0  0  0  0  0  0  0  0  0  0
  -10.2531   32.8944   11.1475 C   0  0  0  0  0  0  0  0  0  0  0  0
   -5.7512   33.3395    7.4889 C   0  0  0  0  0  0  0  0  0  0  0  0
   -5.1758   33.5936    3.8280 C   0  0  0  0  0  0  0  0  0  0  0  0
  -11.6666   33.4926   11.1322 C   0  0  0  0  0  0  0  0  0  0  0  0
  -10.2190   31.6201   12.0285 C   0  0  0  0  0  0  0  0  0  0  0  0
   -4.5174   32.2722    3.3454 C   0  0  0  0  0  0  0  0  0  0  0  0
   -7.1738   28.8564    4.2394 C   0  0  0  0  0  0  0  0  0  0  0  0
   -6.5999   33.6968    3.8429 O   0  0  0  0  0  0  0  0  0  0  0  0
   -4.9639   33.2419    2.3370 C   0  0  0  0  0  0  0  0  0  0  0  0
   -8.5704   29.3088    4.6579 C   0  0  0  0  0  0  0  0  0  0  0  0
   -8.8006   31.3267   12.5403 C   0  0  0  0  0  0  0  0  0  0  0  0
   -8.7691   29.9920   13.2947 C   0  0  0  0  0  0  0  0  0  0  0  0
   -7.3649   29.5446   13.6830 C   0  0  0  0  0  0  0  0  0  0  0  0
   -8.1157   28.8195   12.5719 C   0  0  0  0  0  0  0  0  0  0  0  0
  2  1  1  0
  3  2  1  0
  4  3  1  0
  5  3  1  0
  6  5  1  0
  7  4  1  0
  8  5  1  0
  9  8  1  0
 10  8  1  0
 11  9  1  0
 12 11  1  0
 13 10  1  0
 14  6  1  0
 15  8  1  0
 15 10  1  0
 16  9  1  0
 16 11  1  0
 16 14  1  0
 17  6  1  0
 17 13  1  0
 18 15  1  0
 19 12  1  0
 20 18  1  0
 21 20  1  0
 22 10  1  0
 22 13  1  0
 22 16  1  0
 22 19  1  0
 23 17  1  0
 24 21  1  0
 25 21  1  0
 26 23  1  0
 28 17  1  0
 28 23  1  0
 29 23  1  0
 29 26  1  0
 30  2  1  0
 30  3  1  0
 30 27  1  0
 31 25  1  0
 32 31  1  0
 33 32  1  0
 34 32  1  0
 34 33  1  0
M  END
$$$$
