
     RDKit          3D

 24 26  0  0  0  0  0  0  0  0999 V2000
  -11.4288   29.0670   11.4198 O   0  0  0  0  0  0  0  0  0  0  0  0
  -10.0331   28.9159   11.4932 C   0  0  0  0  0  0  0  0  0  0  0  0
   -9.6935   27.6036   11.8147 O   0  0  0  0  0  0  0  0  0  0  0  0
  -10.7896   29.6296   12.5438 C   0  0  0  0  0  0  0  0  0  0  0  0
  -11.2764   31.9349   11.3304 C   0  0  0  0  0  0  0  0  0  0  0  0
  -11.0538   31.7706   13.8920 C   0  0  0  0  0  0  0  0  0  0  0  0
  -10.9117   33.3322   13.9658 C   0  0  0  0  0  0  0  0  0  0  0  0
  -10.6205   31.1722   12.5290 C   0  0  0  0  0  0  0  0  0  0  0  0
  -12.1883   34.1580   14.3876 C   0  0  0  0  0  0  0  0  0  0  0  0
  -13.4976   33.3589   14.5570 C   0  0  0  0  0  0  0  0  0  0  0  0
  -11.0424   33.4730   11.4160 C   0  0  0  0  0  0  0  0  0  0  0  0
  -10.2743   33.9105   12.6806 C   0  0  0  0  0  0  0  0  0  0  0  0
  -11.8210   35.2964   15.3286 C   0  0  0  0  0  0  0  0  0  0  0  0
  -14.2428   32.9174   15.6108 C   0  0  0  0  0  0  0  0  0  0  0  0
  -12.1371   35.2871   16.6197 C   0  0  0  0  0  0  0  0  0  0  0  0
  -14.6632   33.6251   16.9019 C   0  0  0  0  0  0  0  0  0  0  0  0
  -15.5830   32.6657   17.7215 C   0  0  0  0  0  0  0  0  0  0  0  0
  -15.3861   34.9737   16.5902 C   0  0  0  0  0  0  0  0  0  0  0  0
  -16.3133   33.3019   18.9182 C   0  0  0  0  0  0  0  0  0  0  0  0
  -11.2465   34.5984   17.6416 C   0  0  0  0  0  0  0  0  0  0  0  0
  -11.0744   33.0902   17.4463 C   0  0  0  0  0  0  0  0  0  0  0  0
  -12.7768   31.5916   11.1335 C   0  0  0  0  0  0  0  0  0  0  0  0
  -14.4801   36.1624   16.2345 C   0  0  0  0  0  0  0  0  0  0  0  0
  -13.2001   36.2592   17.1064 C   0  0  0  0  0  0  0  0  0  0  0  0
  2  1  1  0
  3  2  1  0
  4  1  1  0
  4  2  1  0
  7  6  1  0
  8  4  1  0
  8  5  1  0
  8  6  1  0
  9  7  1  0
 10  9  1  0
 11  5  1  0
 12  7  1  0
 12 11  1  0
 13  9  1  0
 14 10  2  0
 15 13  2  0
 16 14  1  0
 17 16  1  0
 18 16  1  0
 19 17  1  0
 20 15  1  0
 21 20  1  0
 22  5  1  0
 23 18  1  0
 24 15  1  0
 24 23  1  0
M  END
$$$$
