
     RDKit          3D

 24 30  0  0  0  0  0  0  0  0999 V2000
   -2.1539   18.9899    5.9510 O   0  0  0  0  0  0  0  0  0  0  0  0
   -2.0690   20.7733    4.9723 C   0  0  0  0  0  0  0  0  0  0  0  0
   -1.1813   22.1756    5.9432 O   0  0  0  0  0  0  0  0  0  0  0  0
   -1.0923   35.0856   11.9389 C   0  0  0  0  0  0  0  0  0  0  0  0
    1.1915   36.5990   10.6455 C   0  0  0  0  0  0  0  0  0  0  0  0
    0.7363   33.9317   10.4325 C   0  0  0  0  0  0  0  0  0  0  0  0
   -3.9808   38.2184   15.3943 C   0  0  0  0  0  0  0  0  0  0  0  0
   -1.0294   37.4277   10.9100 N   0  0  0  0  0  0  0  0  0  0  0  0
   -2.5771   37.3998   12.5141 C   0  0  0  0  0  0  0  0  0  0  0  0
   -3.2625   19.7230    6.3239 C   0  0  0  0  0  0  0  0  0  0  0  0
    0.0832   30.1690    9.4788 C   0  0  0  0  0  0  0  0  0  0  0  0
   -0.0298   26.8151   12.5751 C   0  0  0  0  0  0  0  0  0  0  0  0
    1.1685   24.8312   10.1711 C   0  0  0  0  0  0  0  0  0  0  0  0
    2.5683   26.8143    9.5404 C   0  0  0  0  0  0  0  0  0  0  0  0
   -0.0408   24.6822    7.0462 C   0  0  0  0  0  0  0  0  0  0  0  0
    3.6086   28.4103   10.1465 C   0  0  0  0  0  0  0  0  0  0  0  0
    7.7912   32.3744    9.6773 C   0  0  0  0  0  0  0  0  0  0  0  0
    8.2932   34.4698    9.0630 C   0  0  0  0  0  0  0  0  0  0  0  0
    0.5624   27.3953   10.5137 C   0  0  0  0  0  0  0  0  0  0  0  0
   -0.0783   25.3373   13.5700 C   0  0  0  0  0  0  0  0  0  0  0  0
    5.7706   30.4893   10.2595 C   0  0  0  0  0  0  0  0  0  0  0  0
    1.7808   27.9026    8.4947 C   0  0  0  0  0  0  0  0  0  0  0  0
    7.3093   34.7390    9.5443 C   0  0  0  0  0  0  0  0  0  0  0  0
    8.9386   33.7921   10.8238 C   0  0  0  0  0  0  0  0  0  0  0  0
  2  1  1  0
  3  2  1  0
  6  4  1  0
  6  5  1  0
  8  5  1  0
  9  4  1  0
  9  7  1  0
  9  8  1  0
 10  1  1  0
 10  2  1  0
 11  6  1  0
 14 13  1  0
 15  3  1  0
 16 14  1  0
 18 17  1  0
 19 11  1  0
 19 12  1  0
 19 13  1  0
 20 12  1  0
 21 16  1  0
 21 17  1  0
 22 11  1  0
 22 14  1  0
 22 15  1  0
 22 16  1  0
 23 17  1  0
 23 18  1  0
 24 17  1  0
 24 18  1  0
 24 23  1  0
M  END
$$$$
