
     RDKit          3D

 30 34  0  0  0  0  0  0  0  0999 V2000
   -5.5509   29.4953   12.2798 C   0  0  0  0  0  0  0  0  0  0  0  0
   -4.2738   29.5828   11.4428 C   0  0  0  0  0  0  0  0  0  0  0  0
   -4.4502   29.0886   10.0243 C   0  0  0  0  0  0  0  0  0  0  0  0
   -4.2820   28.6352   12.5790 C   0  0  0  0  0  0  0  0  0  0  0  0
   -5.4408   29.9851    9.2441 C   0  0  0  0  0  0  0  0  0  0  0  0
   -6.7324   29.2218    8.7902 C   0  0  0  0  0  0  0  0  0  0  0  0
   -7.5417   28.0059   10.9929 C   0  0  0  0  0  0  0  0  0  0  0  0
   -7.7601   29.1437    9.9344 C   0  0  0  0  0  0  0  0  0  0  0  0
   -4.8303   30.7699    8.0996 C   0  0  0  0  0  0  0  0  0  0  0  0
   -7.8633   28.5101   13.4703 C   0  0  0  0  0  0  0  0  0  0  0  0
   -6.8281   28.5048   12.2884 C   0  0  0  0  0  0  0  0  0  0  0  0
   -6.7160   27.5023   13.4432 C   0  0  0  0  0  0  0  0  0  0  0  0
   -8.6607   30.9271   13.6411 C   0  0  0  0  0  0  0  0  0  0  0  0
  -10.1089   30.5826   13.5544 C   0  0  0  0  0  0  0  0  0  0  0  0
   -7.8415   29.7758   14.3376 C   0  0  0  0  0  0  0  0  0  0  0  0
   -4.0046   30.0478    7.1924 C   0  0  0  0  0  0  0  0  0  0  0  0
  -11.0691   31.4278   13.0914 C   0  0  0  0  0  0  0  0  0  0  0  0
   -5.6361   31.8149    7.5596 C   0  0  0  0  0  0  0  0  0  0  0  0
   -5.8631   31.7452    6.1619 C   0  0  0  0  0  0  0  0  0  0  0  0
  -10.9028   32.9550   13.1052 C   0  0  0  0  0  0  0  0  0  0  0  0
   -5.5064   30.6430    5.4377 C   0  0  0  0  0  0  0  0  0  0  0  0
   -4.5103   29.8083    5.9356 C   0  0  0  0  0  0  0  0  0  0  0  0
  -10.4074   33.4575   11.6951 C   0  0  0  0  0  0  0  0  0  0  0  0
  -12.1658   33.6241   13.6996 C   0  0  0  0  0  0  0  0  0  0  0  0
  -11.3454   34.4548   11.0117 C   0  0  0  0  0  0  0  0  0  0  0  0
  -12.2614   30.8236   12.3884 C   0  0  0  0  0  0  0  0  0  0  0  0
  -10.8739   35.4752   10.2903 C   0  0  0  0  0  0  0  0  0  0  0  0
   -9.3756   35.7292   10.1017 C   0  0  0  0  0  0  0  0  0  0  0  0
   -8.5449   34.5123   10.4152 C   0  0  0  0  0  0  0  0  0  0  0  0
   -8.9782   33.9919   11.7825 C   0  0  0  0  0  0  0  0  0  0  0  0
  2  1  1  0
  3  2  1  0
  4  1  1  0
  4  2  1  0
  5  3  1  0
  6  5  1  0
  8  6  1  0
  8  7  1  0
  9  5  1  0
 11  1  1  0
 11  7  1  0
 11 10  1  0
 12 10  1  0
 12 11  1  0
 14 13  1  0
 15 10  1  0
 15 13  1  0
 16  9  4  0
 17 14  2  3
 18  9  4  0
 19 18  4  0
 20 17  1  0
 21 19  4  0
 22 16  4  0
 22 21  4  0
 23 20  1  0
 24 20  1  0
 25 23  1  0
 26 17  1  0
 27 25  2  0
 28 27  1  0
 29 28  1  0
 30 23  1  0
 30 29  1  0
M  END
$$$$
