
     RDKit          3D

 31 36  0  0  0  0  0  0  0  0999 V2000
   -7.9146   31.0322   14.9342 N   0  0  0  0  0  0  0  0  0  0  0  0
   -8.5018   31.2292   16.6921 C   0  0  0  0  0  0  0  0  0  0  0  0
   -7.4452   32.1566   18.7055 N   0  0  0  0  0  0  0  0  0  0  0  0
  -10.1641   32.0509   19.8028 N   0  0  0  0  0  0  0  0  0  0  0  0
   -7.0025   33.5106   16.5544 C   0  0  0  0  0  0  0  0  0  0  0  0
  -11.5242   29.9418   20.5056 C   0  0  0  0  0  0  0  0  0  0  0  0
   -6.6503   29.3679   16.5841 C   0  0  0  0  0  0  0  0  0  0  0  0
   -7.4928   30.8403   17.7591 C   0  0  0  0  0  0  0  0  0  0  0  0
   -8.5365   28.1054   15.9030 C   0  0  0  0  0  0  0  0  0  0  0  0
  -11.3420   30.1491   18.5313 C   0  0  0  0  0  0  0  0  0  0  0  0
  -12.5058   31.0143   21.0397 C   0  0  0  0  0  0  0  0  0  0  0  0
   -5.2888   33.7444   16.8663 C   0  0  0  0  0  0  0  0  0  0  0  0
   -5.1136   34.1443   14.0166 C   0  0  0  0  0  0  0  0  0  0  0  0
   -7.4065   33.7558   14.9810 C   0  0  0  0  0  0  0  0  0  0  0  0
   -4.3874   35.0889   13.3238 C   0  0  0  0  0  0  0  0  0  0  0  0
   -6.7961   35.8629   12.1636 C   0  0  0  0  0  0  0  0  0  0  0  0
   -7.5054   37.7099   11.1270 C   0  0  0  0  0  0  0  0  0  0  0  0
   -5.5639   36.4400   13.6187 C   0  0  0  0  0  0  0  0  0  0  0  0
   -8.3358   35.2297   12.4053 O   0  0  0  0  0  0  0  0  0  0  0  0
   -8.7508   33.9745   13.5983 C   0  0  0  0  0  0  0  0  0  0  0  0
   -9.9505   31.2687   18.2436 C   0  0  0  0  0  0  0  0  0  0  0  0
   -7.0507   27.8757   16.1975 O   0  0  0  0  0  0  0  0  0  0  0  0
   -6.1446   34.1896   12.5530 C   0  0  0  0  0  0  0  0  0  0  0  0
   -4.6384   31.8841   13.6544 C   0  0  0  0  0  0  0  0  0  0  0  0
  -10.6368   27.5625   18.4626 C   0  0  0  0  0  0  0  0  0  0  0  0
   -3.8044   30.7318   14.1859 O   0  0  0  0  0  0  0  0  0  0  0  0
   -6.7343   35.2863   15.2296 C   0  0  0  0  0  0  0  0  0  0  0  0
   -6.4847   31.4019   14.0392 C   0  0  0  0  0  0  0  0  0  0  0  0
  -11.0248   28.6688   18.2313 C   0  0  0  0  0  0  0  0  0  0  0  0
   -6.1671   32.4014   15.1836 C   0  0  0  0  0  0  0  0  0  0  0  0
  -11.2986   32.1055   20.8097 C   0  0  0  0  0  0  0  0  0  0  0  0
  2  1  1  0
  8  2  1  0
  8  3  1  0
  8  7  1  0
 10  6  1  0
 11  6  1  0
 12  5  1  0
 13 12  1  0
 15 13  1  0
 17 16  1  0
 18 15  1  0
 18 16  1  0
 19 16  1  0
 20 14  1  0
 20 19  1  0
 21  2  1  0
 21  4  1  0
 21 10  1  0
 22  7  1  0
 22  9  1  0
 23 13  1  0
 23 16  1  0
 26 24  1  0
 27  5  1  0
 27 14  1  0
 27 18  1  0
 28  1  1  0
 28 24  1  0
 29 10  1  0
 29 25  3  0
 30  5  1  0
 30 14  1  0
 30 24  1  0
 30 28  1  0
 31  4  2  0
 31 11  1  0
M  END
$$$$
