
     RDKit          3D

 16 21  0  0  0  0  0  0  0  0999 V2000
   -5.4842   26.5746   11.8647 O   0  0  0  0  0  0  0  0  0  0  0  0
   -4.6081   27.2276   10.9374 C   0  0  0  0  0  0  0  0  0  0  0  0
   -5.1287   27.3001    9.5743 C   0  0  0  0  0  0  0  0  0  0  0  0
   -3.5539   28.3118   11.3661 C   0  0  0  0  0  0  0  0  0  0  0  0
   -4.0901   26.3027    9.9099 N   0  0  0  0  0  0  0  0  0  0  0  0
   -4.1735   29.6836   11.7571 C   0  0  0  0  0  0  0  0  0  0  0  0
   -5.0564   29.6707   13.0316 C   0  0  0  0  0  0  0  0  0  0  0  0
   -6.1623   28.6373   12.8495 C   0  0  0  0  0  0  0  0  0  0  0  0
   -6.7046   27.6287   13.8571 C   0  0  0  0  0  0  0  0  0  0  0  0
   -5.4584   27.2882   13.0708 C   0  0  0  0  0  0  0  0  0  0  0  0
   -7.9686   26.8934   13.4030 C   0  0  0  0  0  0  0  0  0  0  0  0
   -8.3195   25.7416   14.2540 C   0  0  0  0  0  0  0  0  0  0  0  0
   -9.1470   27.0481   14.4072 C   0  0  0  0  0  0  0  0  0  0  0  0
  -10.3057   27.4198   13.4651 C   0  0  0  0  0  0  0  0  0  0  0  0
  -11.6615   27.2820   14.0795 C   0  0  0  0  0  0  0  0  0  0  0  0
  -10.5326   26.3879   14.5506 C   0  0  0  0  0  0  0  0  0  0  0  0
  2  1  1  0
  3  2  1  0
  4  2  1  0
  5  2  1  0
  5  3  1  0
  6  4  1  0
  7  6  1  0
  8  7  1  0
  9  8  1  0
 10  1  1  0
 10  8  1  0
 10  9  1  0
 11  9  1  0
 12 11  1  0
 13 11  1  0
 13 12  1  0
 14 13  1  0
 15 14  1  0
 16 13  1  0
 16 14  1  0
 16 15  1  0
M  END
$$$$
