
     RDKit          3D

 29 32  0  0  0  0  0  0  0  0999 V2000
  -11.9691   36.2907    3.4925 O   0  0  0  0  0  0  0  0  0  0  0  0
  -13.0623   36.5754    4.2304 C   0  0  0  0  0  0  0  0  0  0  0  0
  -14.3837   36.4096    3.4409 C   0  0  0  0  0  0  0  0  0  0  0  0
  -13.1075   37.8534    5.2619 C   0  0  0  0  0  0  0  0  0  0  0  0
  -13.9926   37.3079    6.4075 C   0  0  0  0  0  0  0  0  0  0  0  0
  -12.2197   39.2882    5.5420 C   0  0  0  0  0  0  0  0  0  0  0  0
  -10.8227   39.5665    6.0824 N   0  0  0  0  0  0  0  0  0  0  0  0
  -15.0471   36.3014    5.9919 N   0  0  0  0  0  0  0  0  0  0  0  0
  -16.1755   36.9443    5.2571 C   0  0  0  0  0  0  0  0  0  0  0  0
  -10.6783   39.7179    7.4997 C   0  0  0  0  0  0  0  0  0  0  0  0
  -15.3552   35.9412    4.5376 C   0  0  0  0  0  0  0  0  0  0  0  0
  -11.5638   38.9293    8.2375 O   0  0  0  0  0  0  0  0  0  0  0  0
   -9.3307   39.1824    7.5524 N   0  0  0  0  0  0  0  0  0  0  0  0
   -7.7388   39.2520    5.7048 C   0  0  0  0  0  0  0  0  0  0  0  0
   -6.9226   39.1922    3.1745 C   0  0  0  0  0  0  0  0  0  0  0  0
   -7.9134   36.9511    4.5736 C   0  0  0  0  0  0  0  0  0  0  0  0
   -9.3821   39.0252    6.0857 C   0  0  0  0  0  0  0  0  0  0  0  0
   -8.0438   36.5215    6.0903 C   0  0  0  0  0  0  0  0  0  0  0  0
   -9.1468   35.8509    6.6327 C   0  0  0  0  0  0  0  0  0  0  0  0
   -6.4473   36.6545    1.7950 Cl  0  0  0  0  0  0  0  0  0  0  0  0
   -7.1316   38.3150    4.5099 C   0  0  0  0  0  0  0  0  0  0  0  0
   -9.3524   34.8876    2.5425 C   0  0  0  0  0  0  0  0  0  0  0  0
   -9.6458   36.1202    2.7710 C   0  0  0  0  0  0  0  0  0  0  0  0
   -9.2803   37.1338    3.8666 C   0  0  0  0  0  0  0  0  0  0  0  0
   -6.8150   38.4151    1.8155 C   0  0  0  0  0  0  0  0  0  0  0  0
  -11.3299   35.5099    8.0346 C   0  0  0  0  0  0  0  0  0  0  0  0
  -12.3013   35.2716    4.3806 C   0  0  0  0  0  0  0  0  0  0  0  0
  -10.0957   35.0830    7.1731 C   0  0  0  0  0  0  0  0  0  0  0  0
  -14.6447   38.3324    7.3643 C   0  0  0  0  0  0  0  0  0  0  0  0
  2  1  1  0
  3  2  1  0
  4  2  1  0
  5  4  1  0
  6  4  1  0
  7  6  1  0
  8  5  1  0
  9  8  1  0
 10  7  1  0
 11  3  1  0
 11  8  1  0
 11  9  1  0
 12 10  1  0
 13 10  1  0
 17  7  1  0
 17 13  1  0
 17 14  1  0
 18 16  1  0
 19 18  2  0
 21 14  1  0
 21 15  1  0
 21 16  1  0
 23 22  2  0
 24 16  1  0
 24 23  1  0
 25 15  1  0
 25 20  1  0
 27  1  1  0
 27  2  1  0
 28 19  2  0
 28 26  1  0
 29  5  1  0
M  END
$$$$
