
     RDKit          3D

 17 21  0  0  0  0  0  0  0  0999 V2000
   10.6716   32.2877   10.6979 O   0  0  0  0  0  0  0  0  0  0  0  0
    8.7651   31.6284    9.1860 C   0  0  0  0  0  0  0  0  0  0  0  0
    9.5227   31.5123   10.5012 C   0  0  0  0  0  0  0  0  0  0  0  0
    7.2939   31.3713    9.5026 C   0  0  0  0  0  0  0  0  0  0  0  0
    8.5147   31.5935   11.6294 C   0  0  0  0  0  0  0  0  0  0  0  0
    8.9222   32.4119   12.8782 C   0  0  0  0  0  0  0  0  0  0  0  0
    7.7954   32.9613   13.7481 C   0  0  0  0  0  0  0  0  0  0  0  0
    7.1152   31.6301   10.9992 C   0  0  0  0  0  0  0  0  0  0  0  0
    9.3247   30.3101   11.4166 C   0  0  0  0  0  0  0  0  0  0  0  0
    8.1249   33.0823   15.2393 C   0  0  0  0  0  0  0  0  0  0  0  0
    8.5832   33.8986   12.8365 C   0  0  0  0  0  0  0  0  0  0  0  0
    7.6799   31.8099   15.9629 C   0  0  0  0  0  0  0  0  0  0  0  0
    8.6633   30.6582   15.9319 C   0  0  0  0  0  0  0  0  0  0  0  0
    9.7550   30.7600   16.9843 C   0  0  0  0  0  0  0  0  0  0  0  0
   10.0142   29.5080   17.8323 C   0  0  0  0  0  0  0  0  0  0  0  0
   10.9503   31.6517   16.6322 C   0  0  0  0  0  0  0  0  0  0  0  0
    8.4393   31.4815   17.2309 C   0  0  0  0  0  0  0  0  0  0  0  0
  3  1  1  0
  3  2  1  0
  4  2  1  0
  5  3  1  0
  6  5  1  0
  7  6  1  0
  8  4  1  0
  8  5  1  0
  9  3  1  0
  9  5  1  0
 10  7  1  0
 11  6  1  0
 11  7  1  0
 12 10  1  0
 13 12  1  0
 14 13  1  0
 15 14  1  0
 16 14  1  0
 17 12  1  0
 17 13  1  0
 17 14  1  0
M  END
$$$$
