
     RDKit          3D

 26 31  0  0  0  0  0  0  0  0999 V2000
    3.9121   28.4137   -1.3609 O   0  0  0  0  0  0  0  0  0  0  0  0
    3.2513   29.4852   -1.3730 C   0  0  0  0  0  0  0  0  0  0  0  0
    3.8190   30.7203   -1.0874 O   0  0  0  0  0  0  0  0  0  0  0  0
    1.8179   29.5937   -1.8221 C   0  0  0  0  0  0  0  0  0  0  0  0
    0.7503   29.2042   -0.6486 C   0  0  0  0  0  0  0  0  0  0  0  0
    1.9630   31.0376   -2.3793 C   0  0  0  0  0  0  0  0  0  0  0  0
    1.4907   28.8414    0.7174 C   0  0  0  0  0  0  0  0  0  0  0  0
    0.7649   27.8950    1.6640 C   0  0  0  0  0  0  0  0  0  0  0  0
    2.9120   31.7647   -1.4177 C   0  0  0  0  0  0  0  0  0  0  0  0
   -0.3640   30.2557   -0.3649 C   0  0  0  0  0  0  0  0  0  0  0  0
   -1.5429   30.0971   -1.3566 C   0  0  0  0  0  0  0  0  0  0  0  0
    0.8547   31.8045   -3.0972 C   0  0  0  0  0  0  0  0  0  0  0  0
   -1.4553   29.6096   -2.8253 C   0  0  0  0  0  0  0  0  0  0  0  0
   -2.8143   29.5253   -3.5927 C   0  0  0  0  0  0  0  0  0  0  0  0
   -0.1460   31.6339    0.3570 C   0  0  0  0  0  0  0  0  0  0  0  0
    0.8286   32.7569   -0.1083 C   0  0  0  0  0  0  0  0  0  0  0  0
    0.4497   26.6131    0.9208 C   0  0  0  0  0  0  0  0  0  0  0  0
   -0.5884   26.9225   -0.1341 C   0  0  0  0  0  0  0  0  0  0  0  0
   -1.4856   28.6082   -1.6965 C   0  0  0  0  0  0  0  0  0  0  0  0
    2.3201   32.3369   -0.1068 C   0  0  0  0  0  0  0  0  0  0  0  0
   -0.1560   28.0024   -1.1728 C   0  0  0  0  0  0  0  0  0  0  0  0
   -2.8014   29.5190   -5.0648 C   0  0  0  0  0  0  0  0  0  0  0  0
   -1.5006   29.6754   -5.7136 N   0  0  0  0  0  0  0  0  0  0  0  0
   -3.3199   30.7181   -4.3360 N   0  0  0  0  0  0  0  0  0  0  0  0
   -2.4322   31.8237   -4.2961 N   0  0  0  0  0  0  0  0  0  0  0  0
    0.6556   33.9501    0.8554 C   0  0  0  0  0  0  0  0  0  0  0  0
  2  1  2  0
  3  2  1  0
  4  2  1  0
  5  4  1  0
  6  4  1  0
  7  5  1  0
  8  7  1  0
  9  3  1  0
  9  6  1  0
 10  5  1  0
 11 10  1  0
 12  6  1  0
 13 11  1  0
 14 13  1  0
 15 10  1  0
 16 15  1  0
 17  8  1  0
 18 17  1  0
 19 11  1  0
 19 13  1  0
 20  9  1  0
 20 16  1  0
 21  5  1  0
 21 18  1  0
 21 19  1  0
 22 14  1  0
 23 22  1  0
 24 14  1  0
 24 22  1  0
 25 24  1  0
 26 16  1  0
M  END
$$$$
