
     RDKit          3D

 32 34  0  0  0  0  0  0  0  0999 V2000
   -4.0751   36.9952    0.2036 C   0  0  0  0  0  0  0  0  0  0  0  0
   -5.4650   37.2983   -0.5102 C   0  0  0  0  0  0  0  0  0  0  0  0
   -3.3713   35.7573   -0.4514 C   0  0  0  0  0  0  0  0  0  0  0  0
   -2.3837   36.2911   -1.3037 F   0  0  0  0  0  0  0  0  0  0  0  0
   -5.3216   37.0470    1.0590 C   0  0  0  0  0  0  0  0  0  0  0  0
   -5.0713   38.4411   -1.3872 N   0  0  0  0  0  0  0  0  0  0  0  0
   -5.4444   38.2404    2.0251 C   0  0  0  0  0  0  0  0  0  0  0  0
   -6.9476   38.5696    2.1769 C   0  0  0  0  0  0  0  0  0  0  0  0
   -2.6943   34.9016    0.6183 C   0  0  0  0  0  0  0  0  0  0  0  0
   -7.7066   37.8015    3.1524 C   0  0  0  0  0  0  0  0  0  0  0  0
   -7.2205   39.0940    3.3994 O   0  0  0  0  0  0  0  0  0  0  0  0
   -6.0364   39.4987   -1.7131 C   0  0  0  0  0  0  0  0  0  0  0  0
   -5.2270   40.6321   -2.5107 C   0  0  0  0  0  0  0  0  0  0  0  0
   -7.2837   39.0073   -2.4801 C   0  0  0  0  0  0  0  0  0  0  0  0
   -5.4651   42.0262   -1.7890 C   0  0  0  0  0  0  0  0  0  0  0  0
   -5.8733   35.3875    1.6535 Cl  0  0  0  0  0  0  0  0  0  0  0  0
   -5.0256   42.1641   -0.3054 C   0  0  0  0  0  0  0  0  0  0  0  0
   -7.1907   38.6456   -3.9499 C   0  0  0  0  0  0  0  0  0  0  0  0
   -4.6303   43.6791   -0.0084 C   0  0  0  0  0  0  0  0  0  0  0  0
   -8.2197   39.4413   -4.8261 C   0  0  0  0  0  0  0  0  0  0  0  0
   -8.4575   38.7598   -1.8464 C   0  0  0  0  0  0  0  0  0  0  0  0
   -9.1227   39.8191   -1.0130 C   0  0  0  0  0  0  0  0  0  0  0  0
   -3.2073   44.0480   -0.4947 C   0  0  0  0  0  0  0  0  0  0  0  0
   -3.8726   41.2852    0.1499 C   0  0  0  0  0  0  0  0  0  0  0  0
   -7.7467   40.8637   -5.2879 C   0  0  0  0  0  0  0  0  0  0  0  0
   -6.4282   40.8311   -6.0848 C   0  0  0  0  0  0  0  0  0  0  0  0
   -2.4328   42.9319   -1.2296 C   0  0  0  0  0  0  0  0  0  0  0  0
   -5.5171   41.8049   -5.8952 C   0  0  0  0  0  0  0  0  0  0  0  0
   -2.5406   41.5942   -0.4916 C   0  0  0  0  0  0  0  0  0  0  0  0
   -6.1899   39.8637   -7.2537 C   0  0  0  0  0  0  0  0  0  0  0  0
   -5.7475   40.5889   -8.5158 C   0  0  0  0  0  0  0  0  0  0  0  0
  -10.5381   40.0749   -1.5662 C   0  0  0  0  0  0  0  0  0  0  0  0
  2  1  1  0
  3  1  1  0
  4  3  1  0
  5  1  1  0
  5  2  1  0
  6  2  1  0
  7  5  1  0
  8  7  1  0
  9  3  1  0
 10  8  1  0
 11  8  1  0
 11 10  1  0
 12  6  1  0
 13 12  1  0
 14 12  1  0
 15 13  1  0
 16  5  1  0
 17 15  1  0
 18 14  1  0
 19 17  1  0
 20 18  1  0
 21 14  2  3
 22 21  1  0
 23 19  1  0
 24 17  1  0
 25 20  1  0
 26 25  1  0
 27 23  1  0
 28 26  2  0
 29 24  1  0
 29 27  1  0
 30 26  1  0
 31 30  1  0
 32 22  1  0
M  END
$$$$
