
     RDKit          3D

 14 14  0  0  0  0  0  0  0  0999 V2000
    2.4860   39.2858   11.0434 C   0  0  0  0  0  0  0  0  0  0  0  0
    4.3432   38.7556    9.5505 O   0  0  0  0  0  0  0  0  0  0  0  0
    2.9608   39.0200    9.6185 C   0  0  0  0  0  0  0  0  0  0  0  0
    3.4921   37.1501    7.9304 C   0  0  0  0  0  0  0  0  0  0  0  0
    2.2839   36.2432    7.6620 C   0  0  0  0  0  0  0  0  0  0  0  0
    1.0032   37.0311    7.3205 C   0  0  0  0  0  0  0  0  0  0  0  0
    3.4794   37.6536    9.3771 C   0  0  0  0  0  0  0  0  0  0  0  0
   -0.2712   36.2215    7.6553 C   0  0  0  0  0  0  0  0  0  0  0  0
   -1.4720   36.5449    6.7319 C   0  0  0  0  0  0  0  0  0  0  0  0
   -2.6892   38.5430    3.7262 S   0  0  0  0  0  0  0  0  0  0  0  0
   -2.0269   37.9880    6.7947 C   0  0  0  0  0  0  0  0  0  0  0  0
   -0.6336   36.3401    9.1453 C   0  0  0  0  0  0  0  0  0  0  0  0
   -1.3354   38.9866    5.8485 C   0  0  0  0  0  0  0  0  0  0  0  0
   -1.1646   38.4722    4.5454 O   0  0  0  0  0  0  0  0  0  0  0  0
  3  1  1  0
  3  2  1  0
  5  4  1  0
  6  5  1  0
  7  2  1  0
  7  3  1  0
  7  4  1  0
  8  6  1  0
  9  8  1  0
 11  9  1  0
 12  8  1  0
 13 11  1  0
 14 10  1  0
 14 13  1  0
M  END
$$$$
