
     RDKit          3D

 14 17  0  0  0  0  0  0  0  0999 V2000
   -3.4465   28.6869    8.3099 O   0  0  0  0  0  0  0  0  0  0  0  0
   -2.8481   29.6458    7.4785 C   0  0  0  0  0  0  0  0  0  0  0  0
   -3.9196   30.4955    5.5562 O   0  0  0  0  0  0  0  0  0  0  0  0
   -4.9379   31.2335    7.5573 C   0  0  0  0  0  0  0  0  0  0  0  0
   -4.3284   32.3756    8.3873 C   0  0  0  0  0  0  0  0  0  0  0  0
   -3.9009   30.4617    6.7782 C   0  0  0  0  0  0  0  0  0  0  0  0
   -3.5658   33.4438    7.5667 C   0  0  0  0  0  0  0  0  0  0  0  0
   -3.9503   33.6311    6.1096 C   0  0  0  0  0  0  0  0  0  0  0  0
   -4.2478   35.0586    5.7127 C   0  0  0  0  0  0  0  0  0  0  0  0
   -5.7866   34.7993    7.3628 C   0  0  0  0  0  0  0  0  0  0  0  0
   -6.1625   35.4899    5.5014 As  0  0  0  0  0  3  0  0  0  0  0  0
   -4.2691   34.7286    7.1716 C   0  0  0  0  0  0  0  0  0  0  0  0
   -6.4899   36.0846    7.3762 C   0  0  0  0  0  0  0  0  0  0  0  0
   -5.6977   37.2515    7.7763 N   0  0  0  0  0  0  0  0  0  0  0  0
  2  1  1  0
  5  4  1  0
  6  2  1  0
  6  3  2  0
  6  4  1  0
  7  5  1  0
  8  7  1  0
  9  8  1  0
 11  9  1  0
 11 10  1  0
 12  7  1  0
 12  8  1  0
 12  9  1  0
 12 10  1  0
 13 10  1  0
 13 11  1  0
 14 13  1  0
M  END
$$$$
