
     RDKit          3D

 14 16  0  0  0  0  0  0  0  0999 V2000
  -16.3332   31.7439    3.2454 S   0  0  0  0  0  0  0  0  0  0  0  0
  -15.4233   32.5457    1.8914 C   0  0  0  0  0  0  0  0  0  0  0  0
  -15.0890   32.4397    0.3632 C   0  0  0  0  0  0  0  0  0  0  0  0
  -13.5761   32.6517    0.0376 C   0  0  0  0  0  0  0  0  0  0  0  0
  -14.5769   30.2434    1.8240 C   0  0  0  0  0  0  0  0  0  0  0  0
  -15.1616   30.2989    3.2539 C   0  0  0  0  0  0  0  0  0  0  0  0
  -15.6426   31.2210   -0.3550 C   0  0  0  0  0  0  0  0  0  0  0  0
  -15.5067   31.2188    1.1391 C   0  0  0  0  0  0  0  0  0  0  0  0
  -13.0851   29.3831    4.4989 C   0  0  0  0  0  0  0  0  0  0  0  0
  -13.3252   34.1277   -0.3160 C   0  0  0  0  0  0  0  0  0  0  0  0
  -14.0732   30.5427    4.3334 C   0  0  0  0  0  0  0  0  0  0  0  0
  -13.5366   34.9385    0.8138 O   0  0  0  0  0  0  0  0  0  0  0  0
  -15.9884   29.0370    3.5614 C   0  0  0  0  0  0  0  0  0  0  0  0
  -11.8881   34.3311   -0.8043 C   0  0  0  0  0  0  0  0  0  0  0  0
  2  1  1  0
  3  2  1  0
  4  3  1  0
  6  1  1  0
  6  5  1  0
  7  3  1  0
  8  2  1  0
  8  3  1  0
  8  5  1  0
  8  7  1  0
 10  4  1  0
 11  6  1  0
 11  9  1  0
 12 10  1  0
 13  6  1  0
 14 10  1  0
M  END
$$$$
