
     RDKit          3D

 13 15  0  0  0  0  0  0  0  0999 V2000
  -12.2494   32.8594   20.8275 C   0  0  0  0  0  0  0  0  0  0  0  0
  -11.1584   31.8179   20.5239 C   0  0  0  0  0  0  0  0  0  0  0  0
  -10.0260   32.2532   18.1541 C   0  0  0  0  0  0  0  0  0  0  0  0
  -12.1046   31.9739   16.8651 O   0  0  0  0  0  0  0  0  0  0  0  0
   -9.2725   33.3068   18.8194 N   0  0  0  0  0  0  0  0  0  0  0  0
  -12.0102   34.1299   20.0152 C   0  0  0  0  0  0  0  0  0  0  0  0
  -12.1527   33.8674   18.5068 C   0  0  0  0  0  0  0  0  0  0  0  0
  -11.5013   30.4466   21.0717 C   0  0  0  0  0  0  0  0  0  0  0  0
  -11.8469   29.5957   19.8383 C   0  0  0  0  0  0  0  0  0  0  0  0
  -11.5255   32.5467   18.0047 C   0  0  0  0  0  0  0  0  0  0  0  0
  -11.0455   31.5229   19.0352 C   0  0  0  0  0  0  0  0  0  0  0  0
  -11.2736   30.1823   18.6914 O   0  0  0  0  0  0  0  0  0  0  0  0
  -13.3584   29.4542   19.6394 C   0  0  0  0  0  0  0  0  0  0  0  0
  2  1  1  0
  5  3  1  0
  6  1  1  0
  7  6  1  0
  8  2  1  0
  9  8  1  0
 10  3  1  0
 10  4  1  0
 10  7  1  0
 11  2  1  0
 11  3  1  0
 11 10  1  0
 12  9  1  0
 12 11  1  0
 13  9  1  0
M  END
$$$$
