
     RDKit          3D

 21 27  0  0  0  0  0  0  0  0999 V2000
  -16.8015   26.5559   13.4228 O   0  0  0  0  0  0  0  0  0  0  0  0
  -17.7236   27.0353   14.3538 C   0  0  0  0  0  0  0  0  0  0  0  0
  -17.1984   26.9765   15.6595 O   0  0  0  0  0  0  0  0  0  0  0  0
  -18.7467   25.9056   14.1245 C   0  0  0  0  0  0  0  0  0  0  0  0
  -20.1979   26.4982   14.1025 C   0  0  0  0  0  0  0  0  0  0  0  0
  -21.1424   25.1468   16.0929 C   0  0  0  0  0  0  0  0  0  0  0  0
  -19.9178   24.2891   16.4521 C   0  0  0  0  0  0  0  0  0  0  0  0
  -20.5348   26.9794   12.6660 C   0  0  0  0  0  0  0  0  0  0  0  0
  -17.5376   25.3825   13.2461 C   0  0  0  0  0  0  0  0  0  0  0  0
  -18.8522   25.3928   12.6810 C   0  0  0  0  0  0  0  0  0  0  0  0
  -19.6015   27.9903   12.0153 C   0  0  0  0  0  0  0  0  0  0  0  0
  -19.9085   22.9869   15.7538 N   0  0  0  0  0  0  0  0  0  0  0  0
  -18.8049   28.8504   12.9800 C   0  0  0  0  0  0  0  0  0  0  0  0
  -20.2543   28.8279   10.8901 C   0  0  0  0  0  0  0  0  0  0  0  0
  -18.0648   28.4546   14.0181 C   0  0  0  0  0  0  0  0  0  0  0  0
  -20.9879   28.0689    9.8262 C   0  0  0  0  0  0  0  0  0  0  0  0
  -20.8153   26.7673    9.6010 C   0  0  0  0  0  0  0  0  0  0  0  0
  -19.9051   25.8924   10.4156 C   0  0  0  0  0  0  0  0  0  0  0  0
  -19.4073   26.4716   11.7601 C   0  0  0  0  0  0  0  0  0  0  0  0
  -21.2459   25.4681   14.5898 C   0  0  0  0  0  0  0  0  0  0  0  0
  -20.1655   23.0572   17.2049 C   0  0  0  0  0  0  0  0  0  0  0  0
  2  1  1  0
  3  2  1  0
  4  2  1  0
  5  4  1  0
  7  6  1  0
  8  5  1  0
  9  1  1  0
  9  4  1  0
 10  4  1  0
 10  9  1  0
 11  8  1  0
 12  7  1  0
 13 11  1  0
 14 11  1  0
 15  2  1  0
 15 13  2  0
 16 14  1  0
 17 16  2  0
 18 17  1  0
 19  8  1  0
 19 10  1  0
 19 11  1  0
 19 18  1  0
 20  5  1  0
 20  6  1  0
 21  7  1  0
 21 12  1  0
M  END
$$$$
