
     RDKit          3D

 27 31  0  0  0  0  0  0  0  0999 V2000
   -1.9652   32.0712    5.3090 C   0  0  0  0  0  0  0  0  0  0  0  0
   -1.1679   33.3652    5.0729 C   0  0  0  0  0  0  0  0  0  0  0  0
   -1.1670   30.8068    5.1036 C   0  0  0  0  0  0  0  0  0  0  0  0
   -1.5197   31.2132    6.5299 C   0  0  0  0  0  0  0  0  0  0  0  0
   -1.9088   34.7380    4.9840 C   0  0  0  0  0  0  0  0  0  0  0  0
   -2.1651   35.5025    6.3463 C   0  0  0  0  0  0  0  0  0  0  0  0
   -2.2095   37.0432    6.1252 C   0  0  0  0  0  0  0  0  0  0  0  0
   -1.1682   35.1541    7.4884 C   0  0  0  0  0  0  0  0  0  0  0  0
   -0.8571   37.6718    5.7861 C   0  0  0  0  0  0  0  0  0  0  0  0
   -3.1382   34.7306    4.0513 C   0  0  0  0  0  0  0  0  0  0  0  0
   -2.9930   30.9694    6.7611 C   0  0  0  0  0  0  0  0  0  0  0  0
   -3.6536   29.7898    7.4444 C   0  0  0  0  0  0  0  0  0  0  0  0
   -3.4517   31.9073    5.6552 C   0  0  0  0  0  0  0  0  0  0  0  0
   -5.0022   29.4747    6.9654 N   0  0  0  0  0  0  0  0  0  0  0  0
   -0.5792   30.9433    9.2022 Mg  0  0  0  0  0  2  0  0  0  0  0  0
   -5.3889   30.4430    4.7525 C   0  0  0  0  0  0  0  0  0  0  0  0
   -4.1885   31.3225    4.4238 C   0  0  0  0  0  0  0  0  0  0  0  0
   -4.4149   28.1258    4.9989 C   0  0  0  0  0  0  0  0  0  0  0  0
   -3.4912   28.1910    4.1304 O   0  0  0  0  0  0  0  0  0  0  0  0
   -4.9698   29.3146    5.5738 N   0  0  0  0  0  0  0  0  0  0  0  0
   -2.7213   31.1509    9.4289 C   0  0  0  0  0  0  0  0  0  0  0  0
   -6.9699   30.1439   10.3606 N   0  0  0  0  0  0  0  0  0  0  0  0
   -3.1645   30.0946   10.4482 C   0  0  0  0  0  0  0  0  0  0  0  0
   -4.5857   30.3750   10.9781 C   0  0  0  0  0  0  0  0  0  0  0  0
   -3.6009   31.1573    8.1632 C   0  0  0  0  0  0  0  0  0  0  0  0
   -5.6791   29.4746   10.4383 C   0  0  0  0  0  0  0  0  0  0  0  0
   -5.1625   29.2721   11.8581 C   0  0  0  0  0  0  0  0  0  0  0  0
  2  1  1  0
  3  1  1  0
  4  1  1  0
  4  3  1  0
  5  2  1  0
  6  5  1  0
  7  6  1  0
  8  6  1  0
  9  7  1  0
 10  5  1  0
 11  4  1  0
 12 11  1  0
 13  1  1  0
 13 11  1  0
 14 12  1  0
 17 13  1  0
 17 16  1  0
 19 18  2  0
 20 14  1  0
 20 16  1  0
 20 18  1  0
 21 15  1  0
 23 21  1  0
 24 23  1  0
 25 11  1  0
 25 12  1  0
 25 21  1  0
 26 22  1  0
 26 24  1  0
 27 24  1  0
 27 26  1  0
M  END
$$$$
