
     RDKit          3D

 37 45  0  0  0  0  0  0  0  0999 V2000
   -3.1499   31.7401    8.5541 C   0  0  0  0  0  0  0  0  0  0  0  0
   -4.5276   30.9991    8.7028 C   0  0  0  0  0  0  0  0  0  0  0  0
   -2.0472   31.0397    7.7167 C   0  0  0  0  0  0  0  0  0  0  0  0
   -4.4663   31.2659   10.2013 C   0  0  0  0  0  0  0  0  0  0  0  0
   -2.9984   31.6585   10.0975 C   0  0  0  0  0  0  0  0  0  0  0  0
   -4.9174   29.1918    6.9347 C   0  0  0  0  0  0  0  0  0  0  0  0
   -0.6508   30.4056   10.2794 C   0  0  0  0  0  0  0  0  0  0  0  0
   -0.2060   32.7649    7.1741 C   0  0  0  0  0  0  0  0  0  0  0  0
   -5.8235   28.7281    8.8565 C   0  0  0  0  0  0  0  0  0  0  0  0
   -2.1183   30.5265   10.7307 C   0  0  0  0  0  0  0  0  0  0  0  0
   -5.6652   27.3407    9.5874 C   0  0  0  0  0  0  0  0  0  0  0  0
   -6.7138   26.8516   10.5828 C   0  0  0  0  0  0  0  0  0  0  0  0
   -0.5992   31.5152    7.9712 C   0  0  0  0  0  0  0  0  0  0  0  0
   -7.9279   27.7630   10.8820 C   0  0  0  0  0  0  0  0  0  0  0  0
   -0.1638   31.5967    9.4559 C   0  0  0  0  0  0  0  0  0  0  0  0
   -4.5530   29.4708    8.3975 C   0  0  0  0  0  0  0  0  0  0  0  0
   -0.7674   34.7586    8.7456 C   0  0  0  0  0  0  0  0  0  0  0  0
   -2.5049   33.8995    7.0351 C   0  0  0  0  0  0  0  0  0  0  0  0
   -3.4301   33.2300    8.0746 C   0  0  0  0  0  0  0  0  0  0  0  0
   -1.0227   34.0489    7.4086 C   0  0  0  0  0  0  0  0  0  0  0  0
   -4.4647   26.4110    9.3923 C   0  0  0  0  0  0  0  0  0  0  0  0
   -4.1628   26.4925   10.8817 C   0  0  0  0  0  0  0  0  0  0  0  0
   -5.3747   27.3915   11.0892 C   0  0  0  0  0  0  0  0  0  0  0  0
   -6.1887   28.5007    7.3906 C   0  0  0  0  0  0  0  0  0  0  0  0
   -9.0529   27.1643   11.7561 C   0  0  0  0  0  0  0  0  0  0  0  0
   -8.8083   27.0463   13.2644 C   0  0  0  0  0  0  0  0  0  0  0  0
   -8.9481   25.7872   12.4114 C   0  0  0  0  0  0  0  0  0  0  0  0
   -7.3965   27.2537   13.8533 C   0  0  0  0  0  0  0  0  0  0  0  0
   -7.5415   23.4550   14.4690 O   0  0  0  0  0  1  0  0  0  0  0  0
   -7.8758   25.5256   15.5769 N   0  0  0  0  0  0  0  0  0  0  0  0
   -7.8071   25.1705   17.0140 C   0  0  0  0  0  0  0  0  0  0  0  0
   -5.6280   24.7902   14.7947 N   0  0  0  0  0  2  0  0  0  0  0  0
   -7.3555   26.8947   15.3445 C   0  0  0  0  0  0  0  0  0  0  0  0
   -6.9467   24.4045   15.3097 C   0  0  0  0  0  0  0  0  0  0  0  0
   -8.9328   24.2735   17.4988 C   0  0  0  0  0  0  0  0  0  0  0  0
   -6.9126   23.9645   16.7789 C   0  0  0  0  0  0  0  0  0  0  0  0
   -8.0354   23.0553   17.3008 C   0  0  0  0  0  0  0  0  0  0  0  0
  2  1  1  0
  3  1  1  0
  4  2  1  0
  5  1  1  0
  5  4  1  0
 10  5  1  0
 10  7  1  0
 11  9  1  0
 12 11  1  0
 13  3  1  0
 13  8  1  0
 14 12  1  0
 15  7  1  0
 15 13  1  0
 16  2  1  0
 16  6  1  0
 16  9  1  0
 19  1  1  0
 19 18  1  0
 20  8  1  0
 20 17  1  0
 20 18  1  0
 21 11  1  0
 22 21  1  0
 23 11  1  0
 23 12  1  0
 23 22  1  0
 24  6  1  0
 24  9  1  0
 25 14  1  0
 26 25  1  0
 27 25  1  0
 27 26  1  0
 28 26  1  0
 31 30  1  0
 33 28  1  0
 33 30  1  0
 34 29  1  0
 34 30  1  0
 34 32  1  0
 35 31  1  0
 36 31  1  0
 36 34  1  0
 37 35  1  0
 37 36  1  0
M  RAD  2  29   2  32   2
M  END
$$$$
