
     RDKit          3D

 15 15  0  0  0  0  0  0  0  0999 V2000
  -16.1276   35.3370    6.0733 O   0  0  0  0  0  0  0  0  0  0  0  0
  -16.1382   36.7288    6.2338 C   0  0  0  0  0  0  0  0  0  0  0  0
  -17.0595   37.3866    5.1985 C   0  0  0  0  0  0  0  0  0  0  0  0
  -16.9636   38.8028    5.3308 O   0  0  0  0  0  0  0  0  0  0  0  0
  -16.7846   36.9502    3.7265 C   0  0  0  0  0  0  0  0  0  0  0  0
  -17.9166   39.6865    4.8227 C   0  0  0  0  0  0  0  0  0  0  0  0
  -17.7743   37.4891    2.8859 O   0  0  0  0  0  0  0  0  0  0  0  0
  -17.5586   40.6743    4.0591 N   0  0  0  0  0  0  0  0  0  0  0  0
  -16.1999   40.9829    3.5962 C   0  0  0  0  0  0  0  0  0  0  0  0
  -15.3816   37.2921    3.1365 C   0  0  0  0  0  0  0  0  0  0  0  0
  -19.2991   39.5118    5.1353 N   0  0  0  0  0  0  0  0  0  0  0  0
  -15.5956   39.8567    2.7077 C   0  0  0  0  0  0  0  0  0  0  0  0
  -14.4501   36.2959    3.4896 O   0  0  0  0  0  0  0  0  0  0  0  0
  -14.8288   38.7157    3.4295 C   0  0  0  0  0  0  0  0  0  0  0  0
  -15.3392   41.4121    4.7041 N   0  0  0  0  0  0  0  0  0  0  0  0
  2  1  1  0
  3  2  1  0
  4  3  1  0
  5  3  1  0
  6  4  1  0
  7  5  1  0
  8  6  2  0
  9  8  1  0
 10  5  1  0
 11  6  1  0
 12  9  1  0
 13 10  1  0
 14 10  1  0
 14 12  1  0
 15  9  1  0
M  END
$$$$
