
     RDKit          3D

 15 20  0  0  0  0  0  0  0  0999 V2000
   -7.3298   29.4332   16.1901 O   0  0  0  0  0  0  0  0  0  0  0  0
   -6.9038   28.2071   15.6589 C   0  0  0  0  0  0  0  0  0  0  0  0
   -7.4883   27.1837   16.4217 O   0  0  0  0  0  0  0  0  0  0  0  0
   -7.3688   28.0766   14.1941 C   0  0  0  0  0  0  0  0  0  0  0  0
   -6.5160   28.8738   13.1823 C   0  0  0  0  0  0  0  0  0  0  0  0
   -6.5299   30.3849   13.2563 C   0  0  0  0  0  0  0  0  0  0  0  0
   -7.8807   30.9078   12.8477 C   0  0  0  0  0  0  0  0  0  0  0  0
   -8.9187   30.7761   13.9819 C   0  0  0  0  0  0  0  0  0  0  0  0
   -9.4196   29.3562   14.4599 C   0  0  0  0  0  0  0  0  0  0  0  0
   -6.0181   30.9507   14.6071 C   0  0  0  0  0  0  0  0  0  0  0  0
   -7.3429   29.6609   12.1695 C   0  0  0  0  0  0  0  0  0  0  0  0
   -6.3592   30.4247   16.0076 C   0  0  0  0  0  0  0  0  0  0  0  0
   -8.7738   28.1835   13.9790 O   0  0  0  0  0  0  0  0  0  0  0  0
   -8.5015   31.6955   15.1556 C   0  0  0  0  0  0  0  0  0  0  0  0
   -6.9916   31.7234   15.4966 C   0  0  0  0  0  0  0  0  0  0  0  0
  2  1  1  0
  3  2  1  0
  4  2  1  0
  5  4  1  0
  6  5  1  0
  7  6  1  0
  8  7  1  0
  9  8  1  0
 10  6  1  0
 11  5  1  0
 11  6  1  0
 11  7  1  0
 12  1  1  0
 12 10  1  0
 13  4  1  0
 13  9  1  0
 14  8  1  0
 15 10  1  0
 15 12  1  0
 15 14  1  0
M  END
$$$$
