
     RDKit          3D

 15 18  0  0  0  0  0  0  0  0999 V2000
   -9.0978   23.0714   12.2754 C   0  0  0  0  0  0  0  0  0  0  0  0
   -9.1903   24.5008   11.8221 N   0  0  0  0  0  0  0  0  0  0  0  0
   -8.1731   23.5923   11.2697 C   0  0  0  0  0  0  0  0  0  0  0  0
   -6.7142   23.8231   11.7183 C   0  0  0  0  0  0  0  0  0  0  0  0
   -9.4917   24.1152   13.2097 C   0  0  0  0  0  0  0  0  0  0  0  0
   -5.8357   22.7338   11.1340 C   0  0  0  0  0  0  0  0  0  0  0  0
   -6.2009   21.9384   10.1069 C   0  0  0  0  0  0  0  0  0  0  0  0
   -7.6162   21.8809    9.5445 C   0  0  0  0  0  0  0  0  0  0  0  0
   -6.1593   25.1948   11.2679 C   0  0  0  0  0  0  0  0  0  0  0  0
   -7.6058   21.5765    8.0324 C   0  0  0  0  0  0  0  0  0  0  0  0
   -6.7248   26.3717   12.0640 C   0  0  0  0  0  0  0  0  0  0  0  0
   -7.1722   20.1282    7.7456 C   0  0  0  0  0  0  0  0  0  0  0  0
   -8.2819   19.0888    7.7969 C   0  0  0  0  0  0  0  0  0  0  0  0
   -8.4007   23.1775    9.8176 C   0  0  0  0  0  0  0  0  0  0  0  0
   -7.7195   19.5347    6.4558 C   0  0  0  0  0  0  0  0  0  0  0  0
  2  1  1  0
  3  1  1  0
  3  2  1  0
  4  3  1  0
  5  1  1  0
  5  2  1  0
  6  4  1  0
  7  6  2  0
  8  7  1  0
  9  4  1  0
 10  8  1  0
 11  9  1  0
 12 10  1  0
 13 12  1  0
 14  3  1  0
 14  8  1  0
 15 12  1  0
 15 13  1  0
M  END
$$$$
