
     RDKit          3D

 14 16  0  0  0  0  0  0  0  0999 V2000
    4.5398   36.1958    6.7856 F   0  0  0  0  0  0  0  0  0  0  0  0
    2.9253   36.7026    4.3075 C   0  0  0  0  0  0  0  0  0  0  0  0
    1.7169   37.0270    3.7043 F   0  0  0  0  0  0  0  0  0  0  0  0
    3.2790   36.5359    6.3257 C   0  0  0  0  0  0  0  0  0  0  0  0
    1.4822   35.0738    5.5030 C   0  0  0  0  0  0  0  0  0  0  0  0
    3.3362   37.7119    5.3646 C   0  0  0  0  0  0  0  0  0  0  0  0
   -0.7102   35.5336    5.9762 C   0  0  0  0  0  0  0  0  0  0  0  0
   -1.5781   35.6601    4.7400 C   0  0  0  0  0  0  0  0  0  0  0  0
    2.8482   35.5971    5.2791 N   0  0  0  0  0  0  0  0  0  0  0  0
    0.5711   36.1015    5.8462 O   0  0  0  0  0  0  0  0  0  0  0  0
   -2.9626   36.1774    5.0684 C   0  0  0  0  0  0  0  0  0  0  0  0
   -3.9052   35.1447    5.6930 C   0  0  0  0  0  0  0  0  0  0  0  0
   -4.6808   34.4066    4.6085 C   0  0  0  0  0  0  0  0  0  0  0  0
   -1.8053   36.5797    5.9579 C   0  0  0  0  0  0  0  0  0  0  0  0
  3  2  1  0
  4  1  1  0
  6  2  1  0
  6  4  1  0
  8  7  1  0
  9  2  1  0
  9  4  1  0
  9  5  1  0
 10  5  1  0
 10  7  1  0
 11  8  1  0
 12 11  1  0
 13 12  1  0
 14  7  1  0
 14  8  1  0
 14 11  1  0
M  END
$$$$
