
     RDKit          3D

 15 15  0  0  0  0  0  0  0  0999 V2000
   -6.9123   27.0900    2.7430 C   0  0  0  0  0  0  0  0  0  0  0  0
   -6.0181   28.0338    2.8496 C   0  0  0  0  0  0  0  0  0  0  0  0
   -8.2302   25.3663    3.8573 C   0  0  0  0  0  0  0  0  0  0  0  0
  -10.3863   26.6206    4.3531 C   0  0  0  0  0  0  0  0  0  0  0  0
   -5.9756   29.1638    1.8695 C   0  0  0  0  0  0  0  0  0  0  0  0
   -7.1690   30.0998    2.0901 C   0  0  0  0  0  0  0  0  0  0  0  0
   -8.9985   26.2391    4.8629 C   0  0  0  0  0  0  0  0  0  0  0  0
   -8.3544   25.7779    1.2876 C   0  0  0  0  0  0  0  0  0  0  0  0
   -7.8077   26.1406    2.6354 C   0  0  0  0  0  0  0  0  0  0  0  0
   -8.3857   29.8530    1.1925 C   0  0  0  0  0  0  0  0  0  0  0  0
   -9.8066   30.2139    1.7032 C   0  0  0  0  0  0  0  0  0  0  0  0
   -9.8502   31.1271    2.9110 C   0  0  0  0  0  0  0  0  0  0  0  0
   -7.4553   31.0344    0.9204 C   0  0  0  0  0  0  0  0  0  0  0  0
  -10.6328   30.8145    0.5598 C   0  0  0  0  0  0  0  0  0  0  0  0
   -9.7626   30.6434    4.1547 C   0  0  0  0  0  0  0  0  0  0  0  0
  2  1  2  0
  5  2  1  0
  6  5  1  0
  7  3  1  0
  7  4  1  0
  9  1  2  0
  9  3  1  0
  9  8  1  0
 10  6  1  0
 11 10  1  0
 12 11  1  0
 13  6  1  0
 13 10  1  0
 14 11  1  0
 15 12  2  0
M  END
$$$$
