
     RDKit          3D

 15 18  0  0  0  0  0  0  0  0999 V2000
   -0.7634   32.6240   16.6056 C   0  0  0  0  0  0  0  0  0  0  0  0
   -2.2068   32.8487   16.2083 C   0  0  0  0  0  0  0  0  0  0  0  0
    0.5313   33.1745   16.0679 C   0  0  0  0  0  0  0  0  0  0  0  0
   -1.4784   31.5971   15.7068 C   0  0  0  0  0  0  0  0  0  0  0  0
    1.2516   32.2246   17.0602 C   0  0  0  0  0  0  0  0  0  0  0  0
    1.8749   30.9761   16.3202 C   0  0  0  0  0  0  0  0  0  0  0  0
    0.9730   29.7688   15.8989 C   0  0  0  0  0  0  0  0  0  0  0  0
    2.3802   32.9834   17.8228 C   0  0  0  0  0  0  0  0  0  0  0  0
   -0.1106   31.9547   17.7911 C   0  0  0  0  0  0  0  0  0  0  0  0
    2.5116   32.6902   19.3108 C   0  0  0  0  0  0  0  0  0  0  0  0
    2.0349   34.0607   18.8436 C   0  0  0  0  0  0  0  0  0  0  0  0
    0.5785   29.6425   14.4030 C   0  0  0  0  0  0  0  0  0  0  0  0
   -1.2566   31.5745   14.1779 C   0  0  0  0  0  0  0  0  0  0  0  0
   -0.3059   28.5647   14.2241 O   0  0  0  0  0  0  0  0  0  0  0  0
    0.0480   30.8973   13.6724 C   0  0  0  0  0  0  0  0  0  0  0  0
  2  1  1  0
  3  1  1  0
  4  1  1  0
  4  2  1  0
  5  3  1  0
  6  5  1  0
  7  6  1  0
  8  5  1  0
  9  1  1  0
  9  5  1  0
 10  8  1  0
 11  8  1  0
 11 10  1  0
 12  7  1  0
 13  4  1  0
 14 12  1  0
 15 12  1  0
 15 13  1  0
M  END
$$$$
