
     RDKit          3D

 15 16  0  0  0  0  0  0  0  0999 V2000
  -19.6857   34.9004   10.0313 S   0  0  0  0  0  4  0  0  0  0  0  0
  -16.6678   37.3676    9.0847 C   0  0  0  0  0  0  0  0  0  0  0  0
  -16.1280   36.9908    7.8534 O   0  0  0  0  0  0  0  0  0  0  0  0
  -17.7183   36.5120    9.4136 O   0  0  0  0  0  0  0  0  0  0  0  0
  -15.6429   38.3973   16.1953 C   0  0  0  0  0  0  0  0  0  0  0  0
  -14.7457   37.0540    8.0369 C   0  0  0  0  0  0  0  0  0  0  0  0
  -15.9023   37.9374   14.7914 C   0  0  0  0  0  0  0  0  0  0  0  0
  -17.1284   40.0497   14.0202 C   0  0  0  0  0  0  0  0  0  0  0  0
  -14.6003   38.9635   16.4824 O   0  0  0  0  0  0  0  0  0  0  0  0
  -16.5504   40.4420   12.6849 C   0  0  0  0  0  0  0  0  0  0  0  0
  -17.2153   40.2552   11.5373 C   0  0  0  0  0  0  0  0  0  0  0  0
  -18.4916   39.5138   11.4636 C   0  0  0  0  0  0  0  0  0  0  0  0
  -18.7227   38.3996   12.1699 C   0  0  0  0  0  0  0  0  0  0  0  0
  -17.2239   38.5144   14.2403 C   0  0  0  0  0  0  0  0  0  0  0  0
  -17.6446   37.7245   12.9760 C   0  0  0  0  0  0  0  0  0  0  0  0
  2  1  1  0
  3  2  1  0
  4  2  1  0
  5  1  1  0
  6  1  1  0
  6  3  1  0
  7  5  1  0
  9  5  2  0
 10  8  1  0
 11 10  2  0
 12 11  1  0
 13 12  2  0
 14  7  1  0
 14  8  1  0
 15 13  1  0
 15 14  1  0
M  END
$$$$
