
     RDKit          3D

 15 16  0  0  0  0  0  0  0  0999 V2000
   -5.4143   35.4058    8.7542 C   0  0  0  0  0  0  0  0  0  0  0  0
   -5.3153   35.2903    7.1998 C   0  0  0  0  0  0  0  0  0  0  0  0
   -5.0484   36.7185    9.5293 C   0  0  0  0  0  0  0  0  0  0  0  0
   -5.2377   38.0688    8.8020 C   0  0  0  0  0  0  0  0  0  0  0  0
   -6.4812   35.9716    6.3895 C   0  0  0  0  0  0  0  0  0  0  0  0
   -6.7014   38.3130    8.3765 C   0  0  0  0  0  0  0  0  0  0  0  0
   -6.8359   35.1355    5.1206 C   0  0  0  0  0  0  0  0  0  0  0  0
   -3.9064   35.5054    6.6231 C   0  0  0  0  0  0  0  0  0  0  0  0
   -3.7594   36.6568   10.4068 C   0  0  0  0  0  0  0  0  0  0  0  0
   -8.2603   35.3961    4.5906 C   0  0  0  0  0  0  0  0  0  0  0  0
   -9.3200   34.6013    5.3534 C   0  0  0  0  0  0  0  0  0  0  0  0
   -6.1965   37.4541    5.9816 C   0  0  0  0  0  0  0  0  0  0  0  0
   -6.8816   38.5097    6.8653 C   0  0  0  0  0  0  0  0  0  0  0  0
   -2.4929   37.3170    9.8690 C   0  0  0  0  0  0  0  0  0  0  0  0
   -2.5732   35.8061    9.9638 C   0  0  0  0  0  0  0  0  0  0  0  0
  2  1  1  0
  3  1  1  0
  4  3  1  0
  5  2  1  0
  6  4  1  0
  7  5  1  0
  8  2  1  0
  9  3  1  0
 10  7  1  0
 11 10  1  0
 12  5  1  0
 13  6  1  0
 13 12  1  0
 14  9  1  0
 15  9  1  0
 15 14  1  0
M  END
$$$$
