
     RDKit          3D

 22 24  0  0  0  0  0  0  0  0999 V2000
  -11.7231   27.0262    8.9358 N   0  0  0  0  0  0  0  0  0  0  0  0
  -10.5837   26.0678    8.5697 C   0  0  0  0  0  0  0  0  0  0  0  0
  -10.9896   24.3881    8.3716 C   0  0  0  0  0  0  0  0  0  0  0  0
   -9.3811   25.5418    9.7857 C   0  0  0  0  0  0  0  0  0  0  0  0
  -12.2563   23.9453   10.5689 C   0  0  0  0  0  0  0  0  0  0  0  0
  -13.5309   24.1877    9.6343 C   0  0  0  0  0  0  0  0  0  0  0  0
   -9.8329   22.4992   10.7986 C   0  0  0  0  0  0  0  0  0  0  0  0
   -9.0638   26.6772   10.7380 C   0  0  0  0  0  0  0  0  0  0  0  0
  -10.9733   27.7942    7.8266 C   0  0  0  0  0  0  0  0  0  0  0  0
   -9.7080   30.1355    8.5065 C   0  0  0  0  0  0  0  0  0  0  0  0
   -9.5587   30.6952   10.0241 C   0  0  0  0  0  0  0  0  0  0  0  0
  -11.0948   23.2279    9.7360 C   0  0  0  0  0  0  0  0  0  0  0  0
   -9.7044   28.6068    8.2324 C   0  0  0  0  0  0  0  0  0  0  0  0
   -9.8768   32.4420    9.8474 Cl  0  0  0  0  0  0  0  0  0  0  0  0
  -10.4421   29.9084   11.0897 C   0  0  0  0  0  0  0  0  0  0  0  0
   -9.1087   23.9342   10.7430 C   0  0  0  0  0  0  0  0  0  0  0  0
  -11.5178   30.4961   12.1339 C   0  0  0  0  0  0  0  0  0  0  0  0
   -8.5532   27.9844    7.9324 C   0  0  0  0  0  0  0  0  0  0  0  0
  -12.2929   29.8939   14.0825 C   0  0  0  0  0  0  0  0  0  0  0  0
  -11.0483   30.6692   13.5875 C   0  0  0  0  0  0  0  0  0  0  0  0
  -12.3387   31.6727   11.5479 C   0  0  0  0  0  0  0  0  0  0  0  0
  -12.6324   29.4565   12.5964 C   0  0  0  0  0  0  0  0  0  0  0  0
  2  1  1  0
  3  2  1  0
  4  2  1  0
  6  5  1  0
  8  4  1  0
  9  1  1  0
  9  2  1  0
 11 10  1  0
 12  3  1  0
 12  5  1  0
 12  7  1  0
 13  9  1  0
 13 10  1  0
 14 11  1  0
 15 11  1  0
 16  4  1  0
 16  7  1  0
 17 15  1  0
 18 13  2  0
 20 17  1  0
 20 19  1  0
 21 17  1  0
 22 17  1  0
 22 19  1  0
M  END
$$$$
