
     RDKit          3D

 12 13  0  0  0  0  0  0  0  0999 V2000
    0.1757   22.8547    4.6326 C   0  0  0  0  0  0  0  0  0  0  0  0
   -0.5866   21.2162    8.0527 C   0  0  0  0  0  0  0  0  0  0  0  0
    0.6257   22.1139    7.8298 C   0  0  0  0  0  0  0  0  0  0  0  0
    1.8266   24.2616    8.3494 C   0  0  0  0  0  0  0  0  0  0  0  0
    0.8166   23.2283    8.8646 C   0  0  0  0  0  0  0  0  0  0  0  0
   -1.7705   21.2958    4.9318 C   0  0  0  0  0  0  0  0  0  0  0  0
   -0.4251   21.7473    5.5048 C   0  0  0  0  0  0  0  0  0  0  0  0
    2.9910   25.9016    9.9975 C   0  0  0  0  0  0  0  0  0  0  0  0
   -0.6072   22.2655    6.9424 C   0  0  0  0  0  0  0  0  0  0  0  0
    0.8336   26.6776    8.8186 C   0  0  0  0  0  0  0  0  0  0  0  0
    1.8497   25.3090   10.5787 O   0  0  0  0  0  0  0  0  0  0  0  0
    1.7961   25.5501    9.1902 C   0  0  0  0  0  0  0  0  0  0  0  0
  3  2  1  0
  5  3  1  0
  5  4  1  0
  7  1  1  0
  7  6  1  0
  9  2  1  0
  9  3  1  0
  9  7  1  0
 11  8  1  0
 12  4  1  0
 12  8  1  0
 12 10  1  0
 12 11  1  0
M  END
$$$$
