
     RDKit          3D

 23 26  0  0  0  0  0  0  0  0999 V2000
  -12.8773   27.6923   12.2506 Cl  0  0  0  0  0  0  0  0  0  0  0  0
  -12.0992   26.2184   14.1255 C   0  0  0  0  0  0  0  0  0  0  0  0
  -10.1639   28.0222   13.5829 C   0  0  0  0  0  0  0  0  0  0  0  0
  -11.1788   27.3816   14.5571 O   0  0  0  0  0  0  0  0  0  0  0  0
  -11.7936   26.2351   12.5971 C   0  0  0  0  0  0  0  0  0  0  0  0
  -12.9322   24.7782   14.6456 C   0  0  0  0  0  0  0  0  0  0  0  0
  -13.3352   24.3657   19.0252 O   0  0  0  0  0  0  0  0  0  0  0  0
  -12.1423   24.1383   15.8766 C   0  0  0  0  0  0  0  0  0  0  0  0
  -14.9606   23.5618   16.1507 C   0  0  0  0  0  0  0  0  0  0  0  0
  -11.5654   25.5032   11.2147 C   0  0  0  0  0  0  0  0  0  0  0  0
  -14.1955   24.8821   15.6518 C   0  0  0  0  0  0  0  0  0  0  0  0
  -12.1480   25.3113    8.5741 O   0  0  0  0  0  0  0  0  0  0  0  0
  -10.5257   29.1887   12.8833 C   0  0  0  0  0  0  0  0  0  0  0  0
  -12.6029   25.3690    9.9563 C   0  0  0  0  0  0  0  0  0  0  0  0
  -13.4613   24.0966   10.3452 C   0  0  0  0  0  0  0  0  0  0  0  0
  -13.0536   25.1697   16.7473 C   0  0  0  0  0  0  0  0  0  0  0  0
  -11.6633   22.2576    9.8845 C   0  0  0  0  0  0  0  0  0  0  0  0
  -12.3718   23.1903   11.0313 C   0  0  0  0  0  0  0  0  0  0  0  0
  -12.6678   25.3942   18.2645 C   0  0  0  0  0  0  0  0  0  0  0  0
  -10.0152   23.4656   11.0597 C   0  0  0  0  0  0  0  0  0  0  0  0
  -11.2734   24.0102   11.6164 C   0  0  0  0  0  0  0  0  0  0  0  0
  -10.2386   22.6666    9.8140 C   0  0  0  0  0  0  0  0  0  0  0  0
   -9.6210   24.0498    9.7255 C   0  0  0  0  0  0  0  0  0  0  0  0
  4  2  1  0
  4  3  1  0
  5  1  1  0
  5  2  1  0
  6  2  1  0
  8  6  1  0
 10  5  1  0
 11  6  1  0
 11  9  1  0
 13  3  2  0
 14 10  1  0
 14 12  1  0
 15 14  1  0
 16  8  1  0
 16 11  1  0
 18 15  1  0
 18 17  1  0
 19  7  1  0
 19 16  1  0
 21 10  1  0
 21 18  1  0
 21 20  1  0
 22 17  1  0
 22 20  1  0
 23 20  1  0
 23 22  1  0
M  END
$$$$
