
     RDKit          3D

 25 31  0  0  0  0  0  0  0  0999 V2000
   -1.3126   24.5644    9.1646 N   0  0  0  0  0  0  0  0  0  0  0  0
   -1.1951   23.1262    9.5332 C   0  0  0  0  0  0  0  0  0  0  0  0
   -0.3172   24.3471    8.0953 C   0  0  0  0  0  0  0  0  0  0  0  0
   -0.7409   25.3995   10.1704 N   0  0  0  0  0  0  0  0  0  0  0  0
   -1.9570   22.9675   11.6102 C   0  0  0  0  0  0  0  0  0  0  0  0
   -0.9931   12.6258    5.5757 S   0  0  0  0  0  4  0  0  0  0  0  0
   -3.4441   20.9045   11.2838 N   0  0  0  0  0  0  0  0  0  0  0  0
   -0.7362   22.9886   10.8621 O   0  0  0  0  0  0  0  0  0  0  0  0
    1.1532   22.3666    8.6999 N   0  0  0  0  0  0  0  0  0  0  0  0
   -3.7869   22.8371    9.6139 C   0  0  0  0  0  0  0  0  0  0  0  0
   -3.3102   22.2912    8.2636 C   0  0  0  0  0  0  0  0  0  0  0  0
   -3.0387   22.2339   10.8095 C   0  0  0  0  0  0  0  0  0  0  0  0
   -4.2417   22.1245    1.5725 C   0  0  0  0  0  0  0  0  0  0  0  0
   -2.8379   21.4781    3.5398 C   0  0  0  0  0  0  0  0  0  0  0  0
   -2.8425   21.7088    2.0228 C   0  0  0  0  0  0  0  0  0  0  0  0
    0.3357   17.9945    2.2763 C   0  0  0  0  0  0  0  0  0  0  0  0
   -1.8009   22.7545    1.6440 C   0  0  0  0  0  0  0  0  0  0  0  0
   -3.6341   20.8227    7.8440 C   0  0  0  0  0  0  0  0  0  0  0  0
   -2.3881   20.1355    7.1901 C   0  0  0  0  0  0  0  0  0  0  0  0
    0.3968   19.4687    1.8923 C   0  0  0  0  0  0  0  0  0  0  0  0
   -1.2881   19.9912    8.0692 O   0  0  0  0  0  0  0  0  0  0  0  0
   -2.4024   22.2072    9.4543 C   0  0  0  0  0  0  0  0  0  0  0  0
   -1.9696   18.8028    7.7919 C   0  0  0  0  0  0  0  0  0  0  0  0
   -2.6988   18.8324    6.4731 C   0  0  0  0  0  0  0  0  0  0  0  0
   -0.2187   22.8320    8.3653 C   0  0  0  0  0  0  0  0  0  0  0  0
  2  1  1  0
  3  1  1  0
  4  1  1  0
  8  2  1  0
  8  5  1  0
  9  6  1  0
 11 10  1  0
 12  5  1  0
 12  7  1  0
 12 10  1  0
 15  6  1  0
 15 13  1  0
 15 14  1  0
 17  6  1  0
 17 15  1  0
 18 11  1  0
 19 18  1  0
 20  6  1  0
 20 16  1  0
 21 19  1  0
 22  2  1  0
 22 10  1  0
 22 11  1  0
 22 12  1  0
 23 19  1  0
 23 21  1  0
 24 19  1  0
 24 23  1  0
 25  2  1  0
 25  3  1  0
 25  9  1  0
M  END
$$$$
