
     RDKit          3D

 41 48  0  0  0  0  0  0  0  0999 V2000
   -0.3413   28.5806   -2.2744 N   0  0  0  0  0  0  0  0  0  0  0  0
    0.5802   28.4065    1.9513 C   0  0  0  0  0  0  0  0  0  0  0  0
    0.4288   27.2093   -1.1767 C   0  0  0  0  0  0  0  0  0  0  0  0
    1.2253   29.1354    4.5928 C   0  0  0  0  0  0  0  0  0  0  0  0
    0.9924   29.0805    2.2325 C   0  0  0  0  0  0  0  0  0  0  0  0
   -0.0722   25.1385    0.8518 N   0  0  0  0  0  0  0  0  0  0  0  0
    0.7538   30.3888    4.7884 N   0  0  0  0  0  0  0  0  0  0  0  0
    0.7385   29.1173    3.8465 N   0  0  0  0  0  0  0  0  0  0  0  0
   -0.6983   28.2147   -0.4731 C   0  0  0  0  0  0  0  0  0  0  0  0
    2.7382   25.2912   -0.3085 C   0  0  0  0  0  0  0  0  0  0  0  0
   -1.9259   28.3028   -0.3771 C   0  0  0  0  0  0  0  0  0  0  0  0
    2.3292   22.0435   -1.8933 C   0  0  0  0  0  0  0  0  0  0  0  0
    3.1156   20.7797   -3.1626 C   0  0  0  0  0  0  0  0  0  0  0  0
   -3.8833   26.7366    1.9293 C   0  0  0  0  0  0  0  0  0  0  0  0
   -0.4523   28.3701   -4.5780 C   0  0  0  0  0  0  0  0  0  0  0  0
   -2.1508   29.7065    4.2025 C   0  0  0  0  0  0  0  0  0  0  0  0
    2.5908   22.9886   -4.2039 C   0  0  0  0  0  0  0  0  0  0  0  0
    2.5978   22.8665   -5.9280 C   0  0  0  0  0  0  0  0  0  0  0  0
   -1.9896   28.7907    1.1886 C   0  0  0  0  0  0  0  0  0  0  0  0
   -3.0798   28.6029    2.6010 C   0  0  0  0  0  0  0  0  0  0  0  0
    2.3069   23.5025   -0.9279 C   0  0  0  0  0  0  0  0  0  0  0  0
    2.8633   24.3250   -6.7802 C   0  0  0  0  0  0  0  0  0  0  0  0
    0.4539   27.5768    2.9506 C   0  0  0  0  0  0  0  0  0  0  0  0
   -4.1560   25.9428    5.1485 C   0  0  0  0  0  0  0  0  0  0  0  0
    1.5000   23.3202   -5.0820 O   0  0  0  0  0  0  0  0  0  0  0  0
   -1.4930   23.3276    4.0730 C   0  0  0  0  0  0  0  0  0  0  0  0
   -1.1396   23.9238    5.9615 C   0  0  0  0  0  0  0  0  0  0  0  0
   -3.0515   28.3914    5.6637 C   0  0  0  0  0  0  0  0  0  0  0  0
    1.4403   26.3858    0.1197 C   0  0  0  0  0  0  0  0  0  0  0  0
   -0.2800   22.4850    7.1572 C   0  0  0  0  0  0  0  0  0  0  0  0
   -1.5478   25.7578    4.9347 C   0  0  0  0  0  0  0  0  0  0  0  0
   -4.6097   25.5648    3.4659 C   0  0  0  0  0  0  0  0  0  0  0  0
    1.4258   24.2596    1.3928 C   0  0  0  0  0  0  0  0  0  0  0  0
    0.7642   21.0200   -1.1579 C   0  0  0  0  0  0  0  0  0  0  0  0
   -0.1961   22.2115   -0.7441 C   0  0  0  0  0  0  0  0  0  0  0  0
   -3.7427   23.9816    4.3158 C   0  0  0  0  0  0  0  0  0  0  0  0
   -0.4041   22.8337    1.0864 C   0  0  0  0  0  0  0  0  0  0  0  0
    0.8030   23.5779    6.1623 C   0  0  0  0  0  0  0  0  0  0  0  0
    1.3956   26.0239    4.0189 C   0  0  0  0  0  0  0  0  0  0  0  0
    2.9360   23.1814    0.3978 C   0  0  0  0  0  0  0  0  0  0  0  0
    1.2230   24.9942    5.0754 C   0  0  0  0  0  0  0  0  0  0  0  0
  3  1  1  0
  4  2  1  0
  5  2  1  0
  7  4  2  0
  8  5  1  0
  8  7  1  0
  9  1  1  0
  9  2  1  0
 11  9  2  0
 13 12  1  0
 15  1  1  0
 17 13  1  0
 18 17  1  0
 19 11  2  0
 20 14  1  0
 20 16  1  0
 20 19  1  0
 21 10  1  0
 21 12  1  0
 22 18  1  0
 23  5  1  0
 23  8  1  0
 25 17  1  0
 25 18  1  0
 27 26  1  0
 28 16  1  0
 28 24  1  0
 29  3  1  0
 29  6  1  0
 29 10  1  0
 30 27  1  0
 31 27  2  0
 32 14  1  0
 32 24  1  0
 33  6  1  0
 34 12  1  0
 35 34  1  0
 36 24  1  0
 36 26  1  0
 36 32  1  0
 37 33  1  0
 37 35  1  0
 38 30  1  0
 39 23  1  0
 40 21  1  0
 40 33  1  0
 41 38  1  0
 41 39  3  0
M  END
$$$$
