
     RDKit          3D

 42 52  0  0  0  0  0  0  0  0999 V2000
   -6.0110   22.2281    4.8119 O   0  0  0  0  0  0  0  0  0  0  0  0
   -7.7974   23.4191    8.0656 O   0  0  0  0  0  0  0  0  0  0  0  0
   -8.3832   22.5226    5.4009 C   0  0  0  0  0  0  0  0  0  0  0  0
  -10.0292   22.9386    3.4162 C   0  0  0  0  0  0  0  0  0  0  0  0
   -5.5056   23.7735    8.8230 C   0  0  0  0  0  0  0  0  0  0  0  0
   -4.6966   23.3154   10.0968 C   0  0  0  0  0  0  0  0  0  0  0  0
   -4.6339   24.5827    7.8008 C   0  0  0  0  0  0  0  0  0  0  0  0
   -3.7034   24.3696   10.7226 C   0  0  0  0  0  0  0  0  0  0  0  0
   -8.2636   27.5488    5.6094 C   0  0  0  0  0  0  0  0  0  0  0  0
   -8.5441   24.0498    5.3560 C   0  0  0  0  0  0  0  0  0  0  0  0
   -7.7974   24.7567    4.1322 C   0  0  0  0  0  0  0  0  0  0  0  0
   -8.6943   22.5256    3.9027 C   0  0  0  0  0  0  0  0  0  0  0  0
   -9.1257   24.0098    4.0169 C   0  0  0  0  0  0  0  0  0  0  0  0
   -4.7610   22.0402    5.4743 C   0  0  0  0  0  0  0  0  0  0  0  0
   -4.4122   25.5579   11.4146 C   0  0  0  0  0  0  0  0  0  0  0  0
   -6.4260   21.6314    7.1318 C   0  0  0  0  0  0  0  0  0  0  0  0
   -7.0259   21.8315    5.7111 C   0  0  0  0  0  0  0  0  0  0  0  0
   -2.5267   21.3659    7.6781 C   0  0  0  0  0  0  0  0  0  0  0  0
   -4.1409   23.4214    5.5878 C   0  0  0  0  0  0  0  0  0  0  0  0
   -8.9891   27.0875    4.3473 C   0  0  0  0  0  0  0  0  0  0  0  0
   -8.1530   26.1097    3.4902 C   0  0  0  0  0  0  0  0  0  0  0  0
   -2.8083   23.7416   11.8010 C   0  0  0  0  0  0  0  0  0  0  0  0
   -5.0200   21.1850    6.7340 C   0  0  0  0  0  0  0  0  0  0  0  0
   -2.9245   19.9199    7.4979 C   0  0  0  0  0  0  0  0  0  0  0  0
   -3.9972   20.9486    7.8543 C   0  0  0  0  0  0  0  0  0  0  0  0
   -5.0012   24.4330    6.3544 C   0  0  0  0  0  0  0  0  0  0  0  0
   -6.6035   22.7201    8.2949 C   0  0  0  0  0  0  0  0  0  0  0  0
   -3.6402   26.9102   11.2435 C   0  0  0  0  0  0  0  0  0  0  0  0
   -4.3945   27.9275   10.3760 C   0  0  0  0  0  0  0  0  0  0  0  0
   -5.4598   28.7429   11.1415 C   0  0  0  0  0  0  0  0  0  0  0  0
   -4.9688   29.8390   12.1145 C   0  0  0  0  0  0  0  0  0  0  0  0
   -3.3243   24.2209   13.1689 C   0  0  0  0  0  0  0  0  0  0  0  0
   -7.9637   28.6175   10.6086 C   0  0  0  0  0  0  0  0  0  0  0  0
   -3.7353   23.0199   14.0565 C   0  0  0  0  0  0  0  0  0  0  0  0
   -6.3850   29.5166   15.7391 C   0  0  0  0  0  0  0  0  0  0  0  0
   -7.6849   30.1563   10.5803 C   0  0  0  0  0  0  0  0  0  0  0  0
   -6.8118   28.0908   11.3859 C   0  0  0  0  0  0  0  0  0  0  0  0
   -7.5515   27.1276   10.5164 C   0  0  0  0  0  0  0  0  0  0  0  0
   -4.5128   25.1416   12.8920 C   0  0  0  0  0  0  0  0  0  0  0  0
   -6.6038   29.1901   10.2782 C   0  0  0  0  0  0  0  0  0  0  0  0
   -5.0408   29.4457   13.5993 C   0  0  0  0  0  0  0  0  0  0  0  0
   -6.4400   29.5975   14.2149 C   0  0  0  0  0  0  0  0  0  0  0  0
  6  5  1  0
  7  5  1  0
  8  6  1  0
 10  3  1  0
 11 10  1  0
 12  3  1  0
 12  4  1  0
 13  4  1  0
 13 10  1  0
 13 11  1  0
 13 12  1  0
 14  1  1  0
 15  8  1  0
 17  1  1  0
 17  3  1  0
 17 16  1  0
 19 14  1  0
 20  9  1  0
 21 11  1  0
 21 20  1  0
 22  8  1  0
 23 14  1  0
 23 16  1  0
 24 18  1  0
 25 18  1  0
 25 23  1  0
 25 24  1  0
 26  7  1  0
 26 19  1  0
 27  2  1  0
 27  5  1  0
 27 16  1  0
 28 15  1  0
 29 28  1  0
 30 29  1  0
 31 30  1  0
 32 22  1  0
 34 32  1  0
 36 33  1  0
 37 30  1  0
 37 33  1  0
 38 33  1  0
 38 37  1  0
 39 15  1  0
 39 32  1  0
 40 30  1  0
 40 33  1  0
 40 36  1  0
 40 37  1  0
 41 31  1  0
 42 35  1  0
 42 41  1  0
M  END
$$$$
