
     RDKit          3D

 43 50  0  0  0  0  0  0  0  0999 V2000
   -3.4282   31.4610    4.2480 O   0  0  0  0  0  0  0  0  0  0  0  0
   -2.6050   31.9328   -0.4590 P   0  0  0  0  0  0  0  0  0  0  0  0
   -2.7371   30.5838    0.6320 O   0  0  0  0  0  0  0  0  0  0  0  0
   -0.6373   32.2319   -2.4572 O   0  0  0  0  0  0  0  0  0  0  0  0
   -0.0754   31.9097   -1.2504 O   0  0  0  0  0  0  0  0  0  0  0  0
   -0.6640   34.7495   -2.7049 C   0  0  0  0  0  0  0  0  0  0  0  0
    0.0768   35.9963   -3.4342 C   0  0  0  0  0  0  0  0  0  0  0  0
   -4.5485   37.1555   -2.3234 O   0  0  0  0  0  0  0  0  0  0  0  0
   -0.1351   34.0386   -0.2897 C   0  0  0  0  0  0  0  0  0  0  0  0
   -0.9543   34.9260   -1.1979 C   0  0  0  0  0  0  0  0  0  0  0  0
    0.0200   33.3786   -3.0492 C   0  0  0  0  0  0  0  0  0  0  0  0
   -4.1883   30.3627    3.8752 C   0  0  0  0  0  0  0  0  0  0  0  0
   -5.2359   30.6747    2.8495 C   0  0  0  0  0  0  0  0  0  0  0  0
   -5.0605   31.2865    1.4476 C   0  0  0  0  0  0  0  0  0  0  0  0
   -4.0525   30.2419    1.0474 C   0  0  0  0  0  0  0  0  0  0  0  0
   -3.1958   37.2453   -1.9485 C   0  0  0  0  0  0  0  0  0  0  0  0
   -1.4637   32.3973    0.9889 C   0  0  0  0  0  0  0  0  0  0  0  0
   -2.4171   38.1562   -2.9323 C   0  0  0  0  0  0  0  0  0  0  0  0
   -0.7874   32.6733   -0.3166 C   0  0  0  0  0  0  0  0  0  0  0  0
   -0.5236   36.3103   -4.8229 C   0  0  0  0  0  0  0  0  0  0  0  0
   -4.0456   29.6551    2.5004 C   0  0  0  0  0  0  0  0  0  0  0  0
   -4.1248   38.7372   -0.1681 N   0  0  0  0  0  0  0  0  0  0  0  0
   -0.2218   30.0737    1.4059 C   0  0  0  0  0  0  0  0  0  0  0  0
   -0.5727   31.4991    1.9122 C   0  0  0  0  0  0  0  0  0  0  0  0
   -3.6715   39.6437    0.8921 C   0  0  0  0  0  0  0  0  0  0  0  0
   -4.8981   41.8034    0.2041 C   0  0  0  0  0  0  0  0  0  0  0  0
   -4.9564   32.8287    1.2978 C   0  0  0  0  0  0  0  0  0  0  0  0
   -0.8401   38.4516   -2.8740 C   0  0  0  0  0  0  0  0  0  0  0  0
   -3.7070   33.7850    1.4595 C   0  0  0  0  0  0  0  0  0  0  0  0
   -3.6921   42.4850   -0.0914 O   0  0  0  0  0  0  0  0  0  0  0  0
   -0.4513   37.8146   -5.3401 C   0  0  0  0  0  0  0  0  0  0  0  0
   -3.1644   43.2268    0.9993 C   0  0  0  0  0  0  0  0  0  0  0  0
   -3.1862   33.6418    2.8923 C   0  0  0  0  0  0  0  0  0  0  0  0
    0.2706   37.3449   -2.6411 C   0  0  0  0  0  0  0  0  0  0  0  0
   -0.5086   38.9637   -4.2846 C   0  0  0  0  0  0  0  0  0  0  0  0
   -0.6141   39.6254   -1.8715 C   0  0  0  0  0  0  0  0  0  0  0  0
   -3.9732   34.8641    3.4907 C   0  0  0  0  0  0  0  0  0  0  0  0
   -3.1327   37.6877   -0.4715 C   0  0  0  0  0  0  0  0  0  0  0  0
   -2.2148   33.6271    1.6672 C   0  0  0  0  0  0  0  0  0  0  0  0
   -4.7540   40.6764    1.2264 C   0  0  0  0  0  0  0  0  0  0  0  0
   -3.9769   44.4935    1.3263 C   0  0  0  0  0  0  0  0  0  0  0  0
    0.7359   38.0599   -6.1519 N   0  0  0  0  0  0  0  0  0  0  0  0
   -2.5788   34.6755    3.9078 C   0  0  0  0  0  0  0  0  0  0  0  0
  3  2  1  0
  5  4  1  0
  7  6  1  0
 10  6  1  0
 10  9  1  0
 11  4  1  0
 11  6  1  0
 12  1  1  0
 13 12  1  0
 14 13  1  0
 15  3  1  0
 15 14  1  0
 16  8  1  0
 17  2  1  0
 18 16  1  0
 19  2  1  0
 19  5  1  0
 19  9  1  0
 19 17  1  0
 20  7  1  0
 21 12  1  0
 21 13  1  0
 21 15  1  0
 24 17  1  0
 24 23  1  0
 25 22  1  0
 27 14  1  0
 28 18  1  0
 29 27  1  0
 30 26  1  0
 31 20  1  0
 32 30  1  0
 33 29  1  0
 34  7  1  0
 34 28  1  0
 35 28  1  0
 35 31  1  0
 36 28  1  0
 37 33  1  0
 38 16  1  0
 38 22  1  0
 39 17  1  0
 39 29  1  0
 39 33  1  0
 40 25  1  0
 40 26  1  0
 41 32  1  0
 42 31  1  0
 43 33  1  0
 43 37  1  0
M  END
$$$$
