
     RDKit          3D

 26 29  0  0  0  0  0  0  0  0999 V2000
  -14.8005   28.1256    4.8751 F   0  0  0  0  0  0  0  0  0  0  0  0
  -17.0790   26.8686    5.5193 C   0  0  0  0  0  0  0  0  0  0  0  0
  -15.2413   25.1076    5.0062 C   0  0  0  0  0  0  0  0  0  0  0  0
  -11.1538   22.6486    5.8750 C   0  0  0  0  0  0  0  0  0  0  0  0
  -15.1630   23.7321    4.4736 C   0  0  0  0  0  0  0  0  0  0  0  0
  -16.8110   25.4890    6.5494 C   0  0  0  0  0  0  0  0  0  0  0  0
  -15.3562   25.2275    6.4774 C   0  0  0  0  0  0  0  0  0  0  0  0
  -11.7785   23.1761    4.5601 C   0  0  0  0  0  0  0  0  0  0  0  0
   -9.6882   23.2083    5.8505 C   0  0  0  0  0  0  0  0  0  0  0  0
  -14.8181   26.4515    7.3039 C   0  0  0  0  0  0  0  0  0  0  0  0
  -12.8363   25.3988    2.8619 C   0  0  0  0  0  0  0  0  0  0  0  0
  -16.5791   25.0403    3.7743 C   0  0  0  0  0  0  0  0  0  0  0  0
   -8.4787   22.3464    5.5430 C   0  0  0  0  0  0  0  0  0  0  0  0
   -7.5828   24.1534    3.9442 N   0  0  0  0  0  0  0  0  0  0  0  0
   -7.2108   23.0433    4.8781 C   0  0  0  0  0  0  0  0  0  0  0  0
  -16.0979   23.7411    3.3074 C   0  0  0  0  0  0  0  0  0  0  0  0
  -15.0356   23.6986    2.0780 C   0  0  0  0  0  0  0  0  0  0  0  0
   -9.4149   24.4532    6.2000 C   0  0  0  0  0  0  0  0  0  0  0  0
  -15.8365   27.5044    4.2075 C   0  0  0  0  0  0  0  0  0  0  0  0
  -12.2994   24.8088    4.4508 C   0  0  0  0  0  0  0  0  0  0  0  0
  -14.2231   25.1882    2.0616 C   0  0  0  0  0  0  0  0  0  0  0  0
  -13.2161   26.9399    2.8932 C   0  0  0  0  0  0  0  0  0  0  0  0
  -14.8168   26.7111    2.7787 C   0  0  0  0  0  0  0  0  0  0  0  0
   -7.2869   24.0183    2.5515 C   0  0  0  0  0  0  0  0  0  0  0  0
   -8.3815   21.3587    4.3450 C   0  0  0  0  0  0  0  0  0  0  0  0
   -6.8620   21.6872    4.1936 C   0  0  0  0  0  0  0  0  0  0  0  0
  5  3  1  0
  6  2  1  0
  7  3  1  0
  7  6  1  0
  8  4  1  0
  9  4  1  0
 10  7  1  0
 12  3  1  0
 13  9  1  0
 15 13  1  0
 15 14  1  0
 16  5  1  0
 16 12  1  0
 17 16  1  0
 18  9  2  0
 19  1  1  0
 19  2  1  0
 20  8  1  0
 20 11  1  0
 21 11  1  0
 21 17  1  0
 22 11  1  0
 23 19  1  0
 23 21  1  0
 23 22  1  0
 24 14  1  0
 25 13  1  0
 26 15  1  0
 26 25  1  0
M  END
$$$$
