
     RDKit          3D

 44 55  0  0  0  0  0  0  0  0999 V2000
   -7.4205   28.8590   14.9620 C   0  0  0  0  0  0  0  0  0  0  0  0
   -6.3293   28.4773   15.9328 C   0  0  0  0  0  0  0  0  0  0  0  0
   -7.4197   29.9853   13.8445 C   0  0  0  0  0  0  0  0  0  0  0  0
   -6.0056   30.2589   13.3375 C   0  0  0  0  0  0  0  0  0  0  0  0
   -5.4316   31.5031   13.9873 C   0  0  0  0  0  0  0  0  0  0  0  0
   -6.2621   27.7860   17.2880 C   0  0  0  0  0  0  0  0  0  0  0  0
   -6.5434   34.0613   13.1902 C   0  0  0  0  0  0  0  0  0  0  0  0
   -6.8651   27.0189   16.0841 C   0  0  0  0  0  0  0  0  0  0  0  0
   -7.7865   34.4202   12.1909 C   0  0  0  0  0  0  0  0  0  0  0  0
   -8.2082   31.1368   14.5058 C   0  0  0  0  0  0  0  0  0  0  0  0
   -5.5898   32.7019   12.8528 C   0  0  0  0  0  0  0  0  0  0  0  0
   -8.3856   29.3492   12.7272 C   0  0  0  0  0  0  0  0  0  0  0  0
   -5.0653   27.0436   14.4568 C   0  0  0  0  0  0  0  0  0  0  0  0
   -7.2732   33.9274   10.8187 C   0  0  0  0  0  0  0  0  0  0  0  0
   -4.7856   27.4269   17.1968 C   0  0  0  0  0  0  0  0  0  0  0  0
   -6.7430   35.1928   10.1233 C   0  0  0  0  0  0  0  0  0  0  0  0
   -4.2254   26.8155   15.8381 C   0  0  0  0  0  0  0  0  0  0  0  0
   -7.6174   36.2583    9.3461 C   0  0  0  0  0  0  0  0  0  0  0  0
   -9.0244   35.7255    8.9743 C   0  0  0  0  0  0  0  0  0  0  0  0
  -10.0313   35.1468    9.7357 C   0  0  0  0  0  0  0  0  0  0  0  0
   -3.7384   27.8467   14.7447 C   0  0  0  0  0  0  0  0  0  0  0  0
   -5.7937   26.6463   17.8772 O   0  0  0  0  0  0  0  0  0  0  0  0
   -8.5141   33.3492   11.4007 C   0  0  0  0  0  0  0  0  0  0  0  0
   -6.5184   27.5961   14.7466 C   0  0  0  0  0  0  0  0  0  0  0  0
   -5.6082   30.4250   11.8861 C   0  0  0  0  0  0  0  0  0  0  0  0
   -9.6152   33.7158   10.3399 C   0  0  0  0  0  0  0  0  0  0  0  0
   -8.2386   33.2829    9.9633 N   0  0  0  0  0  0  0  0  0  0  0  0
   -5.8770   31.8243   11.5907 C   0  0  0  0  0  0  0  0  0  0  0  0
   -2.7843   27.1144   15.6302 C   0  0  0  0  0  0  0  0  0  0  0  0
   -1.9534   36.6028    7.1818 C   0  0  0  0  0  0  0  0  0  0  0  0
   -1.7839   37.7962   10.3285 C   0  0  0  0  0  0  0  0  0  0  0  0
   -5.0476   37.8580    7.4191 C   0  0  0  0  0  0  0  0  0  0  0  0
   -5.4800   35.4921   10.8354 O   0  0  0  0  0  0  0  0  0  0  0  0
   -1.6247   38.1169    8.8453 C   0  0  0  0  0  0  0  0  0  0  0  0
   -4.5092   36.3058    7.5740 C   0  0  0  0  0  0  0  0  0  0  0  0
   -0.7856   37.1461    7.9750 C   0  0  0  0  0  0  0  0  0  0  0  0
   -5.6567   38.3342    8.8420 C   0  0  0  0  0  0  0  0  0  0  0  0
   -7.7444   37.6138    9.9202 N   0  0  0  0  0  0  0  0  0  0  0  0
   -3.2303   35.8154    6.7693 C   0  0  0  0  0  0  0  0  0  0  0  0
   -5.0250   39.6513    9.4980 C   0  0  0  0  0  0  0  0  0  0  0  0
   -7.2299   38.5223    8.8793 C   0  0  0  0  0  0  0  0  0  0  0  0
   -5.9030   37.8556    6.2230 C   0  0  0  0  0  0  0  0  0  0  0  0
   -5.2954   39.5619   11.0425 C   0  0  0  0  0  0  0  0  0  0  0  0
   -5.8791   39.1007    5.3214 C   0  0  0  0  0  0  0  0  0  0  0  0
  2  1  1  0
  3  1  1  0
  4  3  1  0
  5  4  1  0
  6  2  1  0
  8  2  1  0
  8  6  1  0
  9  7  1  0
 10  3  1  0
 11  5  1  0
 11  7  1  0
 12  3  1  0
 14  9  1  0
 15  6  1  0
 16 14  1  0
 17 13  1  0
 17 15  1  0
 18 16  1  0
 19 18  1  0
 20 19  2  0
 21 13  1  0
 21 17  1  0
 22  6  1  0
 22 15  1  0
 23  9  1  0
 23 14  1  0
 24  1  1  0
 24  2  1  0
 24  8  1  0
 24 13  1  0
 25  4  1  0
 26 20  1  0
 26 23  1  0
 27 14  1  0
 27 23  1  0
 27 26  1  0
 28 11  1  0
 28 25  1  0
 29 17  1  0
 29 21  1  0
 33 16  1  0
 34 31  1  0
 35 32  1  0
 36 30  1  0
 36 34  1  0
 37 32  1  0
 38 18  1  0
 39 30  1  0
 39 35  1  0
 40 37  1  0
 41 37  1  0
 41 38  1  0
 42 32  1  0
 43 40  1  0
 44 42  1  0
M  END
$$$$
