
     RDKit          3D

 45 51  0  0  0  0  0  0  0  0999 V2000
  -10.6252   22.9874    7.2763 C   0  0  0  0  0  0  0  0  0  0  0  0
   -9.2420   22.0223    8.6188 N   0  0  0  0  0  0  0  0  0  0  0  0
  -10.9462   23.3937   10.4658 C   0  0  0  0  0  0  0  0  0  0  0  0
   -9.3132   22.1699    7.0821 C   0  0  0  0  0  0  0  0  0  0  0  0
  -11.3850   22.4617   11.5608 N   0  0  0  0  0  0  0  0  0  0  0  0
  -13.4656   22.5519   13.9583 N   0  0  0  0  0  0  0  0  0  0  0  0
  -10.6501   22.5276    8.8959 C   0  0  0  0  0  0  0  0  0  0  0  0
   -9.5177   22.3415    4.6077 O   0  0  0  0  0  0  0  0  0  0  0  0
  -15.7073   21.2902   15.1239 C   0  0  0  0  0  0  0  0  0  0  0  0
  -15.6578   24.6632   14.7489 C   0  0  0  0  0  0  0  0  0  0  0  0
  -12.0278   23.8083   11.8248 C   0  0  0  0  0  0  0  0  0  0  0  0
  -14.4803   22.2931   15.1110 C   0  0  0  0  0  0  0  0  0  0  0  0
  -14.8429   24.6428   13.2656 C   0  0  0  0  0  0  0  0  0  0  0  0
   -7.1670   23.6058    5.2144 C   0  0  0  0  0  0  0  0  0  0  0  0
   -6.3438   24.4517    8.8610 C   0  0  0  0  0  0  0  0  0  0  0  0
   -6.1441   24.6989    4.3122 C   0  0  0  0  0  0  0  0  0  0  0  0
   -8.9065   25.3843    9.4239 C   0  0  0  0  0  0  0  0  0  0  0  0
   -1.8398   26.8381    4.2852 C   0  0  0  0  0  0  0  0  0  0  0  0
   -4.0276   27.2402    5.2141 C   0  0  0  0  0  0  0  0  0  0  0  0
   -0.3749   26.2913    4.4168 C   0  0  0  0  0  0  0  0  0  0  0  0
   -3.5055   27.3002    6.4470 C   0  0  0  0  0  0  0  0  0  0  0  0
   -3.4162   26.2846    4.1952 C   0  0  0  0  0  0  0  0  0  0  0  0
   -4.1176   21.0130    5.4475 O   0  0  0  0  0  0  0  0  0  0  0  0
   -3.5801   26.1236    8.7377 C   0  0  0  0  0  0  0  0  0  0  0  0
   -6.6399   25.9236    9.4370 C   0  0  0  0  0  0  0  0  0  0  0  0
   -6.2890   23.3301    6.5479 C   0  0  0  0  0  0  0  0  0  0  0  0
   -4.5754   22.1259    5.2074 C   0  0  0  0  0  0  0  0  0  0  0  0
   -9.8562   24.0223    6.3646 C   0  0  0  0  0  0  0  0  0  0  0  0
   -8.8247   23.0204    5.7361 C   0  0  0  0  0  0  0  0  0  0  0  0
  -11.5751   21.3156    8.9450 C   0  0  0  0  0  0  0  0  0  0  0  0
   -4.4585   24.9228    4.0891 C   0  0  0  0  0  0  0  0  0  0  0  0
  -13.4098   25.9004   15.0558 C   0  0  0  0  0  0  0  0  0  0  0  0
   -4.6476   23.1927    6.3585 C   0  0  0  0  0  0  0  0  0  0  0  0
   -3.2705   24.8786    9.6190 C   0  0  0  0  0  0  0  0  0  0  0  0
   -6.6135   24.5158    7.4373 C   0  0  0  0  0  0  0  0  0  0  0  0
   -7.5441   24.8103    9.8439 C   0  0  0  0  0  0  0  0  0  0  0  0
  -13.5565   23.5369   12.8290 C   0  0  0  0  0  0  0  0  0  0  0  0
   -4.1976   28.4768    9.5232 O   0  0  0  0  0  0  0  0  0  0  0  0
  -15.0863   23.5834   15.7629 C   0  0  0  0  0  0  0  0  0  0  0  0
   -1.3521   28.6694    9.5701 C   0  0  0  0  0  0  0  0  0  0  0  0
   -3.3110   24.2675    6.5641 C   0  0  0  0  0  0  0  0  0  0  0  0
   -3.4830   27.2845    9.7716 C   0  0  0  0  0  0  0  0  0  0  0  0
   -2.9875   25.9013    7.2232 C   0  0  0  0  0  0  0  0  0  0  0  0
   -2.0591   27.5152   10.2542 C   0  0  0  0  0  0  0  0  0  0  0  0
  -14.6743   25.7758   14.2609 C   0  0  0  0  0  0  0  0  0  0  0  0
  4  1  1  0
  4  2  1  0
  5  3  1  0
  7  1  1  0
  7  2  1  0
  7  3  1  0
 11  3  1  0
 11  5  1  0
 12  6  1  0
 12  9  1  0
 13 10  1  0
 16 14  1  0
 20 18  1  0
 21 19  2  0
 22 18  1  0
 22 19  1  0
 25 15  1  0
 26 14  1  0
 27 23  2  0
 28  1  1  0
 29  4  1  0
 29  8  1  0
 29 14  1  0
 29 28  1  0
 30  7  1  0
 31 16  1  0
 31 22  1  0
 33 26  1  0
 33 27  1  0
 34 24  1  0
 35 15  1  0
 35 26  1  0
 36 15  1  0
 36 17  1  0
 36 25  1  0
 37  6  1  0
 37 11  1  0
 37 13  1  0
 39 10  1  0
 39 12  1  0
 41 33  1  0
 42 24  1  0
 42 38  1  0
 43 21  1  0
 43 24  1  0
 43 41  1  0
 44 40  1  0
 44 42  1  0
 45 10  1  0
 45 13  1  0
 45 32  1  0
M  END
$$$$
