
     RDKit          3D

 45 54  0  0  0  0  0  0  0  0999 V2000
   -7.2208   30.3386   -1.9935 C   0  0  0  0  0  0  0  0  0  0  0  0
   -7.6301   28.6908   -1.8111 C   0  0  0  0  0  0  0  0  0  0  0  0
   -6.8450   30.1787    0.6945 C   0  0  0  0  0  0  0  0  0  0  0  0
   -8.6657   30.9422    2.0328 C   0  0  0  0  0  0  0  0  0  0  0  0
   -7.3348   32.8379    0.1692 C   0  0  0  0  0  0  0  0  0  0  0  0
   -8.1871   29.8756    0.2841 C   0  0  0  0  0  0  0  0  0  0  0  0
   -9.2119   28.7767   -2.1471 C   0  0  0  0  0  0  0  0  0  0  0  0
   -7.2778   31.0855   -0.3712 C   0  0  0  0  0  0  0  0  0  0  0  0
   -5.7536   28.6509   -3.9047 C   0  0  0  0  0  0  0  0  0  0  0  0
   -7.6114   29.2163    4.0853 C   0  0  0  0  0  0  0  0  0  0  0  0
   -5.0125   28.0872   -1.5348 C   0  0  0  0  0  0  0  0  0  0  0  0
   -6.0882   30.2589   -3.2499 C   0  0  0  0  0  0  0  0  0  0  0  0
   -8.4305   28.6779    5.1270 N   0  0  0  0  0  0  0  0  0  0  0  0
   -7.1338   30.7011    1.9490 N   0  0  0  0  0  0  0  0  0  0  0  0
   -5.8398   26.7917   -5.9579 C   0  0  0  0  0  0  0  0  0  0  0  0
   -8.1256   26.9794   -4.5332 C   0  0  0  0  0  0  0  0  0  0  0  0
   -9.3714   30.5418    0.4141 C   0  0  0  0  0  0  0  0  0  0  0  0
   -8.6235   25.6051   -5.1408 C   0  0  0  0  0  0  0  0  0  0  0  0
  -10.0463   27.8796   -1.2469 C   0  0  0  0  0  0  0  0  0  0  0  0
  -11.0948   26.1585   -0.5957 C   0  0  0  0  0  0  0  0  0  0  0  0
   -9.2423   26.2663   -0.9070 S   0  0  0  0  0  0  0  0  0  0  0  0
   -4.9105   27.7425   -2.9881 C   0  0  0  0  0  0  0  0  0  0  0  0
   -7.4898   30.6497    4.7824 C   0  0  0  0  0  0  0  0  0  0  0  0
   -4.2284   26.6756    2.6168 C   0  0  0  0  0  0  0  0  0  0  0  0
   -9.9640   29.4354   -0.8828 C   0  0  0  0  0  0  0  0  0  0  0  0
  -10.1928   30.0035   -2.2523 C   0  0  0  0  0  0  0  0  0  0  0  0
  -12.4631   27.3191   -2.7177 C   0  0  0  0  0  0  0  0  0  0  0  0
   -8.9775   29.7842    3.2736 C   0  0  0  0  0  0  0  0  0  0  0  0
  -12.0713   27.7697    1.1521 C   0  0  0  0  0  0  0  0  0  0  0  0
   -6.4317   27.6326   -1.1093 C   0  0  0  0  0  0  0  0  0  0  0  0
  -10.0496   26.5345    1.6823 O   0  0  0  0  0  0  0  0  0  0  0  0
  -12.5563   28.0567   -0.2426 C   0  0  0  0  0  0  0  0  0  0  0  0
   -2.5223   26.7657    2.5735 C   0  0  0  0  0  0  0  0  0  0  0  0
   -5.4135   25.5184   -5.1407 C   0  0  0  0  0  0  0  0  0  0  0  0
   -2.1860   27.6090    1.3595 C   0  0  0  0  0  0  0  0  0  0  0  0
   -8.9012   30.0288    4.7992 C   0  0  0  0  0  0  0  0  0  0  0  0
  -11.5788   27.4318   -1.3053 C   0  0  0  0  0  0  0  0  0  0  0  0
   -4.7523   28.1346    3.1992 C   0  0  0  0  0  0  0  0  0  0  0  0
   -6.7456   27.7656   -4.9724 C   0  0  0  0  0  0  0  0  0  0  0  0
   -6.4267   28.1103    3.2847 C   0  0  0  0  0  0  0  0  0  0  0  0
  -10.1521   30.6119    5.4360 C   0  0  0  0  0  0  0  0  0  0  0  0
   -1.6074   25.4925    2.5521 C   0  0  0  0  0  0  0  0  0  0  0  0
  -11.2860   26.4415    0.9849 C   0  0  0  0  0  0  0  0  0  0  0  0
  -10.1710   25.4769   -5.4474 C   0  0  0  0  0  0  0  0  0  0  0  0
  -13.7372   28.2898   -2.9429 C   0  0  0  0  0  0  0  0  0  0  0  0
  2  1  1  0
  6  3  1  0
  7  2  1  0
  8  1  1  0
  8  3  1  0
  8  5  1  0
  8  6  1  0
 12  1  1  0
 12  9  1  0
 13 10  1  0
 14  3  1  0
 14  4  1  0
 17  4  1  0
 17  6  1  0
 18 16  1  0
 19  7  1  0
 21 19  1  0
 21 20  1  0
 22  9  1  0
 22 11  1  0
 23 10  1  0
 25  7  1  0
 25 17  1  0
 25 19  1  0
 26  7  1  0
 26 25  1  0
 28  4  1  0
 28 10  1  0
 30  2  1  0
 30 11  1  0
 32 29  1  0
 33 24  1  0
 34 15  1  0
 35 33  1  0
 36 13  1  0
 36 23  1  0
 36 28  1  0
 37 19  1  0
 37 20  1  0
 37 27  1  0
 37 32  1  0
 38 24  1  0
 39  9  1  0
 39 15  1  0
 39 16  1  0
 40 10  1  0
 40 38  1  0
 41 36  1  0
 42 33  1  0
 43 20  1  0
 43 29  1  0
 43 31  1  0
 44 18  1  0
 45 27  1  0
M  END
$$$$
