
     RDKit          3D

 45 54  0  0  0  0  0  0  0  0999 V2000
   -7.3176   22.0956    3.3229 O   0  0  0  0  0  0  0  0  0  0  0  0
   -8.1615   22.6366    2.3429 C   0  0  0  0  0  0  0  0  0  0  0  0
   -7.7136   21.7014    1.2663 C   0  0  0  0  0  0  0  0  0  0  0  0
   -9.5388   21.8750    2.6318 C   0  0  0  0  0  0  0  0  0  0  0  0
   -6.4646   21.0579    1.4387 N   0  0  0  0  0  0  0  0  0  0  0  0
   -7.3742   20.9263    2.5644 C   0  0  0  0  0  0  0  0  0  0  0  0
  -11.7611   23.1908   -0.1494 N   0  0  0  0  0  0  0  0  0  0  0  0
  -10.6276   23.5086    0.7365 C   0  0  0  0  0  0  0  0  0  0  0  0
   -8.8420   20.5324    2.9450 C   0  0  0  0  0  0  0  0  0  0  0  0
  -10.8039   22.7225    2.1974 C   0  0  0  0  0  0  0  0  0  0  0  0
   -7.9683   22.2855   -0.3707 C   0  0  0  0  0  0  0  0  0  0  0  0
   -9.2802   24.8177    0.4575 P   0  0  0  0  0  0  0  0  0  0  0  0
   -9.4586   23.0818   -0.1448 C   0  0  0  0  0  0  0  0  0  0  0  0
   -8.0714   21.4134   -1.9506 C   0  0  0  0  0  0  0  0  0  0  0  0
  -15.1108   17.2832   -3.8964 C   0  0  0  0  0  0  0  0  0  0  0  0
   -9.3059   20.6213   -1.8473 C   0  0  0  0  0  0  0  0  0  0  0  0
   -7.5584   21.4165   -3.4994 N   0  0  0  0  0  0  0  0  0  0  0  0
  -14.4028   18.2614   -4.9126 C   0  0  0  0  0  0  0  0  0  0  0  0
   -6.6392   21.5588   -5.9236 C   0  0  0  0  0  0  0  0  0  0  0  0
  -13.1572   17.5134   -5.4477 C   0  0  0  0  0  0  0  0  0  0  0  0
   -5.5813   20.8976   -6.9661 C   0  0  0  0  0  0  0  0  0  0  0  0
  -11.8531   18.1282   -6.1758 C   0  0  0  0  0  0  0  0  0  0  0  0
  -14.0465   19.7517   -4.5142 C   0  0  0  0  0  0  0  0  0  0  0  0
  -13.4018   21.5510   -6.6817 C   0  0  0  0  0  0  0  0  0  0  0  0
  -10.4342   16.5856   -4.8717 O   0  0  0  0  0  0  0  0  0  0  0  0
   -7.6613   20.8399   -5.0202 C   0  0  0  0  0  0  0  0  0  0  0  0
  -10.0643   15.5255   -5.7027 C   0  0  0  0  0  0  0  0  0  0  0  0
  -14.4017   17.7687   -6.3837 C   0  0  0  0  0  0  0  0  0  0  0  0
  -11.0066   16.0495   -7.9349 O   0  0  0  0  0  0  0  0  0  0  0  0
  -14.4151   20.8715   -5.6168 C   0  0  0  0  0  0  0  0  0  0  0  0
   -6.9935   22.8232   -6.3304 C   0  0  0  0  0  0  0  0  0  0  0  0
  -11.1393   14.6189   -8.0604 C   0  0  0  0  0  0  0  0  0  0  0  0
   -8.7182   23.9469   -4.7281 C   0  0  0  0  0  0  0  0  0  0  0  0
   -8.6548   14.8989   -5.3237 C   0  0  0  0  0  0  0  0  0  0  0  0
  -10.3542   17.5215   -5.8854 C   0  0  0  0  0  0  0  0  0  0  0  0
   -8.5889   13.4383   -5.7948 C   0  0  0  0  0  0  0  0  0  0  0  0
   -7.6209   24.9708   -4.1455 C   0  0  0  0  0  0  0  0  0  0  0  0
   -9.0597   18.4445   -5.3449 C   0  0  0  0  0  0  0  0  0  0  0  0
   -8.3941   23.3965   -6.1592 C   0  0  0  0  0  0  0  0  0  0  0  0
   -7.0092   25.8638   -5.2925 C   0  0  0  0  0  0  0  0  0  0  0  0
  -10.0148   16.3982   -6.9326 C   0  0  0  0  0  0  0  0  0  0  0  0
   -7.6578   19.2716   -5.3592 C   0  0  0  0  0  0  0  0  0  0  0  0
   -9.6520   22.9082   -3.7864 C   0  0  0  0  0  0  0  0  0  0  0  0
   -9.0137   21.5692   -3.1407 C   0  0  0  0  0  0  0  0  0  0  0  0
   -7.4527   12.5958   -5.3673 C   0  0  0  0  0  0  0  0  0  0  0  0
  2  1  1  0
  3  2  1  0
  4  2  1  0
  5  3  1  0
  6  1  1  0
  6  3  1  0
  6  5  1  0
  8  7  1  0
  9  4  1  0
  9  6  1  0
 10  4  1  0
 10  8  1  0
 11  3  1  0
 12  8  1  0
 13  8  1  0
 13 11  1  0
 13 12  1  0
 14 11  1  0
 16 14  1  0
 17 14  1  0
 18 15  1  0
 20 18  1  0
 21 19  1  0
 22 20  1  0
 23 18  1  0
 26 17  1  0
 26 19  1  0
 27 25  1  0
 28 18  1  0
 28 20  1  0
 30 23  1  0
 30 24  1  0
 31 19  2  0
 32 29  1  0
 34 27  1  0
 35 22  1  0
 35 25  1  0
 36 34  1  0
 37 33  1  0
 38 35  1  0
 39 31  1  0
 39 33  1  0
 40 37  1  0
 41 27  1  0
 41 29  1  0
 41 35  1  0
 42 26  1  0
 42 38  1  0
 43 33  1  0
 44 14  1  0
 44 16  1  0
 44 17  1  0
 44 43  1  0
 45 36  1  0
M  END
$$$$
