
     RDKit          3D

 30 37  0  0  0  0  0  0  0  0999 V2000
  -12.8887   40.5511   12.8494 C   0  0  0  0  0  0  0  0  0  0  0  0
  -10.4524   39.5133    9.8860 C   0  0  0  0  0  0  0  0  0  0  0  0
  -15.3280   39.3678   12.1768 C   0  0  0  0  0  0  0  0  0  0  0  0
   -8.6170   38.9106    9.9153 C   0  0  0  0  0  0  0  0  0  0  0  0
   -6.9162   39.5223    8.5299 C   0  0  0  0  0  0  0  0  0  0  0  0
   -6.5054   37.5668    7.6745 C   0  0  0  0  0  0  0  0  0  0  0  0
  -10.1815   40.1176   11.5442 C   0  0  0  0  0  0  0  0  0  0  0  0
   -6.0860   35.4577    7.1234 C   0  0  0  0  0  0  0  0  0  0  0  0
   -8.7114   33.0538    8.3857 C   0  0  0  0  0  0  0  0  0  0  0  0
   -8.8790   36.0612    9.2149 C   0  0  0  0  0  0  0  0  0  0  0  0
  -11.5885   30.8377    8.8718 C   0  0  0  0  0  0  0  0  0  0  0  0
  -12.1415   29.1931    8.3063 C   0  0  0  0  0  0  0  0  0  0  0  0
  -12.3686   27.7980    9.1918 C   0  0  0  0  0  0  0  0  0  0  0  0
  -13.7161   28.6818    9.1426 C   0  0  0  0  0  0  0  0  0  0  0  0
   -5.2961   41.4147    8.8385 C   0  0  0  0  0  0  0  0  0  0  0  0
   -4.9085   41.7520   10.6382 C   0  0  0  0  0  0  0  0  0  0  0  0
   -2.2961   42.1522   12.0031 C   0  0  0  0  0  0  0  0  0  0  0  0
   -1.5728   42.1835   13.8694 C   0  0  0  0  0  0  0  0  0  0  0  0
   -1.4851   40.8208   11.4837 C   0  0  0  0  0  0  0  0  0  0  0  0
   -2.8521   40.4434    7.6604 C   0  0  0  0  0  0  0  0  0  0  0  0
   -5.1798   40.4306   11.8806 C   0  0  0  0  0  0  0  0  0  0  0  0
   -4.3443   38.1671    6.3713 C   0  0  0  0  0  0  0  0  0  0  0  0
   -6.0395   39.1558   12.6561 C   0  0  0  0  0  0  0  0  0  0  0  0
   -2.2742   40.3655   14.5239 C   0  0  0  0  0  0  0  0  0  0  0  0
   -3.0320   42.4756    9.6790 C   0  0  0  0  0  0  0  0  0  0  0  0
   -3.7705   40.1970   12.3139 N   0  0  0  0  0  0  0  0  0  0  0  0
   -3.8739   40.4524   13.9196 C   0  0  0  0  0  0  0  0  0  0  0  0
   -2.5936   40.0956   10.9171 C   0  0  0  0  0  0  0  0  0  0  0  0
   -3.7101   42.8943    8.4181 C   0  0  0  0  0  0  0  0  0  0  0  0
   -1.8705   38.7542   13.4974 C   0  0  0  0  0  0  0  0  0  0  0  0
  3  1  1  0
  5  4  1  0
  6  5  1  0
  7  1  1  0
  7  2  1  0
  7  4  1  0
  8  6  1  0
  9  8  1  0
 10  4  1  0
 10  9  1  0
 11  9  1  0
 12 11  1  0
 13 12  1  0
 14 11  1  0
 14 12  1  0
 14 13  1  0
 15  5  1  0
 16 15  1  0
 18 17  1  0
 19 17  1  0
 21 16  1  0
 22  8  1  0
 22 20  1  0
 23 21  1  0
 24 18  1  0
 25 16  1  0
 25 17  1  0
 25 20  1  0
 26 21  1  0
 27 24  1  0
 27 26  1  0
 28 19  1  0
 28 26  1  0
 29 15  1  0
 29 20  1  0
 29 25  1  0
 30 24  1  0
M  END
$$$$
