
     RDKit          3D

 45 60  0  0  0  0  0  0  0  0999 V2000
   -2.6853   28.0143    4.8897 O   0  0  0  0  0  0  0  0  0  0  0  0
   -3.4987   27.0249    4.2460 C   0  0  0  0  0  0  0  0  0  0  0  0
   -5.0866   27.4837    4.0525 C   0  0  0  0  0  0  0  0  0  0  0  0
   -2.6514   26.2841    3.1347 C   0  0  0  0  0  0  0  0  0  0  0  0
   -5.3765   27.4658    2.5085 C   0  0  0  0  0  0  0  0  0  0  0  0
   -5.2415   28.5956    5.2174 C   0  0  0  0  0  0  0  0  0  0  0  0
   -6.7514   26.8018    2.0765 C   0  0  0  0  0  0  0  0  0  0  0  0
   -7.8570   27.7489    1.9723 O   0  0  0  0  0  0  0  0  0  0  0  0
   -5.2047   28.8957    2.0914 C   0  0  0  0  0  0  0  0  0  0  0  0
   -4.4095   29.9233    5.2334 C   0  0  0  0  0  0  0  0  0  0  0  0
   -6.7597   28.6059    5.7161 C   0  0  0  0  0  0  0  0  0  0  0  0
   -7.7792   29.7653    5.7106 C   0  0  0  0  0  0  0  0  0  0  0  0
   -9.2401   29.3560    6.0923 C   0  0  0  0  0  0  0  0  0  0  0  0
   -6.2064   28.6153    4.2537 C   0  0  0  0  0  0  0  0  0  0  0  0
   -6.8086   29.6724    6.8426 C   0  0  0  0  0  0  0  0  0  0  0  0
  -10.0571   30.5443    6.5382 C   0  0  0  0  0  0  0  0  0  0  0  0
   -5.0714   28.9550    0.5275 C   0  0  0  0  0  0  0  0  0  0  0  0
  -10.6480   31.2502    5.3117 C   0  0  0  0  0  0  0  0  0  0  0  0
  -10.8732   32.7958    5.4728 C   0  0  0  0  0  0  0  0  0  0  0  0
  -11.2825   33.7385    4.3381 C   0  0  0  0  0  0  0  0  0  0  0  0
  -12.6076   34.3380    4.4561 N   0  0  0  0  0  0  0  0  0  0  0  0
  -11.0415   33.1606    3.0042 N   0  0  0  0  0  0  0  0  0  0  0  0
   -9.8222   32.4064    3.1897 C   0  0  0  0  0  0  0  0  0  0  0  0
   -5.2226   30.2686   -0.2922 C   0  0  0  0  0  0  0  0  0  0  0  0
  -12.3565   33.0065    5.0298 C   0  0  0  0  0  0  0  0  0  0  0  0
   -3.7204   30.3191   -0.8589 C   0  0  0  0  0  0  0  0  0  0  0  0
   -9.6764   32.1984    4.6810 C   0  0  0  0  0  0  0  0  0  0  0  0
   -6.1294   29.6415    3.0808 C   0  0  0  0  0  0  0  0  0  0  0  0
   -2.8910   26.8141    5.5976 C   0  0  0  0  0  0  0  0  0  0  0  0
   -6.1917   29.0600   -0.4153 C   0  0  0  0  0  0  0  0  0  0  0  0
   -4.2824   31.8351   -2.3398 C   0  0  0  0  0  0  0  0  0  0  0  0
   -7.5976   29.2872    0.0741 C   0  0  0  0  0  0  0  0  0  0  0  0
   -8.2570   28.0029    0.6238 C   0  0  0  0  0  0  0  0  0  0  0  0
   -3.4267   33.1221   -0.6404 C   0  0  0  0  0  0  0  0  0  0  0  0
   -1.6497   31.9395    0.8339 C   0  0  0  0  0  0  0  0  0  0  0  0
   -3.7099   34.0589   -1.7798 C   0  0  0  0  0  0  0  0  0  0  0  0
   -2.0942   32.3905   -0.5778 C   0  0  0  0  0  0  0  0  0  0  0  0
   -4.9263   33.1164   -1.8098 C   0  0  0  0  0  0  0  0  0  0  0  0
   -4.8443   32.8721   -0.3656 N   0  0  0  0  0  0  0  0  0  0  0  0
   -0.8081   33.0098    1.6116 C   0  0  0  0  0  0  0  0  0  0  0  0
    0.5370   33.2524    1.0063 N   0  0  0  0  0  0  0  0  0  0  0  0
   -4.8677   30.4961   -1.8160 C   0  0  0  0  0  0  0  0  0  0  0  0
   -2.8036   34.2585   -3.0209 C   0  0  0  0  0  0  0  0  0  0  0  0
    0.5095   34.1412   -0.1999 C   0  0  0  0  0  0  0  0  0  0  0  0
   -3.1668   31.6779   -1.3593 C   0  0  0  0  0  0  0  0  0  0  0  0
  2  1  1  0
  3  2  1  0
  4  2  1  0
  5  3  1  0
  6  3  1  0
  7  5  1  0
  8  7  1  0
  9  5  1  0
 10  6  1  0
 11  6  1  0
 12 11  1  0
 13 12  1  0
 14  3  1  0
 14  6  1  0
 14 11  1  0
 15 11  1  0
 15 12  1  0
 16 13  1  0
 17  9  1  0
 18 16  1  0
 19 18  1  0
 20 19  1  0
 21 20  1  0
 22 20  1  0
 23 22  1  0
 24 17  1  0
 25 19  1  0
 25 20  1  0
 25 21  1  0
 26 24  1  0
 27 18  1  0
 27 19  1  0
 27 23  1  0
 28  9  1  0
 28 14  1  0
 29  1  1  0
 29  2  1  0
 30 17  1  0
 30 24  1  0
 32 30  1  0
 33  8  1  0
 33 32  1  0
 36 34  1  0
 37 34  1  0
 37 35  1  0
 38 31  1  0
 38 36  1  0
 39 34  1  0
 39 38  1  0
 40 35  1  0
 41 40  1  0
 42 24  1  0
 42 26  1  0
 42 31  1  0
 43 36  1  0
 44 41  1  0
 45 26  1  0
 45 31  1  0
 45 34  1  0
 45 37  1  0
M  END
$$$$
