
     RDKit          3D

 12 14  0  0  0  0  0  0  0  0999 V2000
   -7.8422   27.7775   17.5194 N   0  0  0  0  0  0  0  0  0  0  0  0
   -8.9060   27.4955   18.4942 C   0  0  0  0  0  0  0  0  0  0  0  0
   -7.9670   30.4531   14.5152 C   0  0  0  0  0  0  0  0  0  0  0  0
   -9.6044   26.3324   18.1235 O   0  0  0  0  0  0  0  0  0  0  0  0
   -8.7908   29.1697   14.4552 C   0  0  0  0  0  0  0  0  0  0  0  0
   -9.8129   28.6513   18.5945 N   0  0  0  0  0  0  0  0  0  0  0  0
   -6.9510   30.6207   13.3767 C   0  0  0  0  0  0  0  0  0  0  0  0
   -8.7073   31.7295   14.9343 C   0  0  0  0  0  0  0  0  0  0  0  0
   -7.6596   29.2943   15.4853 C   0  0  0  0  0  0  0  0  0  0  0  0
   -9.3789   29.6214   17.5993 C   0  0  0  0  0  0  0  0  0  0  0  0
   -8.1402   29.0817   16.9456 C   0  0  0  0  0  0  0  0  0  0  0  0
   -8.0227   30.2615   17.9107 C   0  0  0  0  0  0  0  0  0  0  0  0
  2  1  1  0
  4  2  1  0
  5  3  1  0
  6  2  1  0
  7  3  1  0
  8  3  1  0
  9  3  1  0
  9  5  1  0
 10  6  1  0
 11  1  1  0
 11  9  1  0
 11 10  1  0
 12 10  1  0
 12 11  1  0
M  END
$$$$
