
     RDKit          3D

 45 57  0  0  0  0  0  0  0  0999 V2000
  -13.7163   32.0210    1.8727 O   0  0  0  0  0  0  0  0  0  0  0  0
  -12.9196   32.0285    0.6589 C   0  0  0  0  0  0  0  0  0  0  0  0
  -13.9819   31.9325   -0.2756 O   0  0  0  0  0  0  0  0  0  0  0  0
  -10.5477   33.5619   -1.6205 C   0  0  0  0  0  0  0  0  0  0  0  0
   -7.7523   35.8728   -2.4342 C   0  0  0  0  0  0  0  0  0  0  0  0
   -8.0092   36.1967   -4.1283 C   0  0  0  0  0  0  0  0  0  0  0  0
  -11.9754   33.4246   -1.0285 C   0  0  0  0  0  0  0  0  0  0  0  0
  -13.0178   34.7291   -3.0077 C   0  0  0  0  0  0  0  0  0  0  0  0
   -7.6197   34.8210   -4.9465 C   0  0  0  0  0  0  0  0  0  0  0  0
  -14.4464   36.2537   -5.3380 C   0  0  0  0  0  0  0  0  0  0  0  0
  -15.4845   34.9251   -5.5923 C   0  0  0  0  0  0  0  0  0  0  0  0
  -16.9673   34.9926   -4.9389 C   0  0  0  0  0  0  0  0  0  0  0  0
  -14.6394   33.7764   -4.7386 C   0  0  0  0  0  0  0  0  0  0  0  0
  -14.4093   35.0036   -3.9422 C   0  0  0  0  0  0  0  0  0  0  0  0
   -7.6770   32.1195   -5.3624 C   0  0  0  0  0  0  0  0  0  0  0  0
  -17.9051   35.6876   -3.7612 C   0  0  0  0  0  0  0  0  0  0  0  0
   -7.0679   36.3470   -5.3653 C   0  0  0  0  0  0  0  0  0  0  0  0
  -17.2125   34.3392   -2.4429 C   0  0  0  0  0  0  0  0  0  0  0  0
   -7.3241   30.8964   -4.5312 C   0  0  0  0  0  0  0  0  0  0  0  0
  -17.1353   35.8408   -2.4305 C   0  0  0  0  0  0  0  0  0  0  0  0
  -12.4646   36.8437   -5.6720 C   0  0  0  0  0  0  0  0  0  0  0  0
  -17.1958   33.8555   -3.9098 C   0  0  0  0  0  0  0  0  0  0  0  0
  -13.1324   36.2305   -3.3237 C   0  0  0  0  0  0  0  0  0  0  0  0
  -11.7302   33.2546    0.5484 C   0  0  0  0  0  0  0  0  0  0  0  0
   -7.0613   31.3606   -2.4501 C   0  0  0  0  0  0  0  0  0  0  0  0
  -10.1577   32.8473   -0.2514 C   0  0  0  0  0  0  0  0  0  0  0  0
  -18.3971   34.3401   -3.2741 N   0  0  0  0  0  0  0  0  0  0  0  0
  -10.6549   37.5940   -5.5400 C   0  0  0  0  0  0  0  0  0  0  0  0
  -12.2790   35.8765   -4.7529 C   0  0  0  0  0  0  0  0  0  0  0  0
   -9.4054   35.0158   -1.7931 C   0  0  0  0  0  0  0  0  0  0  0  0
  -12.4783   34.6733   -1.3107 C   0  0  0  0  0  0  0  0  0  0  0  0
   -7.3067   37.1493   -6.8857 C   0  0  0  0  0  0  0  0  0  0  0  0
   -5.8850   36.7043   -4.6181 C   0  0  0  0  0  0  0  0  0  0  0  0
  -11.3552   36.3450   -3.7766 O   0  0  0  0  0  0  0  0  0  0  0  0
   -6.4173   31.2604   -1.9960 C   0  0  0  0  0  0  0  0  0  0  0  0
   -4.7770   28.1074   -5.6684 C   0  0  0  0  0  0  0  0  0  0  0  0
   -5.3490   30.5588   -3.8531 C   0  0  0  0  0  0  0  0  0  0  0  0
   -7.2447   31.2445   -0.0640 C   0  0  0  0  0  0  0  0  0  0  0  0
  -12.5568   34.6931   -6.2481 C   0  0  0  0  0  0  0  0  0  0  0  0
   -6.3063   32.5660   -4.7351 C   0  0  0  0  0  0  0  0  0  0  0  0
   -6.7799   33.1719   -4.3618 C   0  0  0  0  0  0  0  0  0  0  0  0
   -4.6039   32.0227   -3.5418 C   0  0  0  0  0  0  0  0  0  0  0  0
   -6.9252   37.0155   -3.4196 C   0  0  0  0  0  0  0  0  0  0  0  0
   -6.0693   30.0980   -5.2101 C   0  0  0  0  0  0  0  0  0  0  0  0
   -5.5711   28.9354   -4.4775 C   0  0  0  0  0  0  0  0  0  0  0  0
  2  1  1  0
  3  2  1  0
  6  5  1  0
  7  4  1  0
  9  6  1  0
 11 10  1  0
 12 11  1  0
 13 11  1  0
 14  8  1  0
 14 10  1  0
 14 13  1  0
 16 12  1  0
 17  6  1  0
 17  9  1  0
 19 15  1  0
 20 16  1  0
 20 18  1  0
 21 10  1  0
 22 12  1  0
 22 18  1  0
 23  8  1  0
 24  2  1  0
 24  7  1  0
 25 19  1  0
 26  4  1  0
 26 24  1  0
 27 16  1  0
 27 18  1  0
 27 22  1  0
 28 21  1  0
 29 21  1  0
 29 23  1  0
 30  4  1  0
 30  5  1  0
 31  7  1  0
 31  8  1  0
 32 17  1  0
 33 17  1  0
 34 29  1  0
 37 25  1  0
 38 25  1  0
 38 35  1  0
 39 29  1  0
 40 15  1  0
 40 35  1  0
 41  9  1  0
 41 15  1  0
 42 37  1  0
 42 41  1  0
 43  5  1  0
 43  6  1  0
 43 33  1  0
 44 19  1  0
 44 37  1  0
 45 36  1  0
 45 37  1  0
 45 44  1  0
M  END
$$$$
