
     RDKit          3D

 43 53  0  0  0  0  0  0  0  0999 V2000
   -3.3441   37.9216    8.8913 C   0  0  0  0  0  0  0  0  0  0  0  0
   -1.4952   38.2194    5.5198 C   0  0  0  0  0  0  0  0  0  0  0  0
    0.1675   38.0809    5.1576 C   0  0  0  0  0  0  0  0  0  0  0  0
   -2.7996   39.9885    8.8011 C   0  0  0  0  0  0  0  0  0  0  0  0
   -0.1555   36.6586    4.3350 C   0  0  0  0  0  0  0  0  0  0  0  0
    1.7057   41.0305   11.1552 C   0  0  0  0  0  0  0  0  0  0  0  0
   -1.0180   40.0102   12.4420 C   0  0  0  0  0  0  0  0  0  0  0  0
   -2.9867   39.6790   10.3374 C   0  0  0  0  0  0  0  0  0  0  0  0
   -0.7109   35.8487    7.6124 C   0  0  0  0  0  0  0  0  0  0  0  0
   -0.5588   40.9104   13.5088 C   0  0  0  0  0  0  0  0  0  0  0  0
   -1.2355   39.2849    9.5335 C   0  0  0  0  0  0  0  0  0  0  0  0
    2.3479   39.5059   12.6406 C   0  0  0  0  0  0  0  0  0  0  0  0
    1.2592   36.1842    8.4640 C   0  0  0  0  0  0  0  0  0  0  0  0
   -2.9493   40.6040   16.2172 C   0  0  0  0  0  0  0  0  0  0  0  0
    2.8509   40.6252   11.5273 C   0  0  0  0  0  0  0  0  0  0  0  0
   -1.4728   40.8673   15.1861 C   0  0  0  0  0  0  0  0  0  0  0  0
    1.4940   37.1740    4.8589 C   0  0  0  0  0  0  0  0  0  0  0  0
   -2.9241   34.5250    8.3425 Br  0  0  0  0  0  0  0  0  0  0  0  0
   -1.2857   41.4793   11.5036 C   0  0  0  0  0  0  0  0  0  0  0  0
   -2.0120   37.2184    4.1656 C   0  0  0  0  0  0  0  0  0  0  0  0
    2.4559   40.3524   10.2646 C   0  0  0  0  0  0  0  0  0  0  0  0
   -2.2566   36.9889    9.1760 C   0  0  0  0  0  0  0  0  0  0  0  0
    0.9184   39.9359   13.3307 C   0  0  0  0  0  0  0  0  0  0  0  0
    0.9252   37.5870   11.1642 C   0  0  0  0  0  0  0  0  0  0  0  0
    0.3993   39.8115   11.9647 C   0  0  0  0  0  0  0  0  0  0  0  0
    3.4443   39.6909   13.6175 O   0  0  0  0  0  0  0  0  0  0  0  0
   -1.4670   37.7255   11.6593 Si  0  0  0  0  0  4  0  0  0  0  0  0
   -2.7109   36.4541    6.3293 O   0  0  0  0  0  0  0  0  0  0  0  0
    1.7642   41.3524    9.3811 C   0  0  0  0  0  0  0  0  0  0  0  0
    2.1898   39.0726    9.1844 C   0  0  0  0  0  0  0  0  0  0  0  0
   -1.4697   37.0468    7.2996 C   0  0  0  0  0  0  0  0  0  0  0  0
    3.9134   38.7471    9.5161 C   0  0  0  0  0  0  0  0  0  0  0  0
    0.4398   35.3263    5.5639 O   0  0  0  0  0  0  0  0  0  0  0  0
    0.8481   35.4631    7.2375 C   0  0  0  0  0  0  0  0  0  0  0  0
    2.6267   36.4310    8.0664 C   0  0  0  0  0  0  0  0  0  0  0  0
    4.5127   41.6052   10.2987 Sb  0  0  0  0  0  3  0  0  0  0  0  0
    1.1267   40.1024    9.0336 O   0  0  0  0  0  0  0  0  0  0  0  0
    2.6583   38.1020   11.5087 O   0  0  0  0  0  0  0  0  0  0  0  0
   -1.4985   36.4549    9.5276 C   0  0  0  0  0  0  0  0  0  0  0  0
    3.5680   43.7564   10.4303 C   0  0  0  0  0  0  0  0  0  0  0  0
    4.7912   37.5845    9.2939 C   0  0  0  0  0  0  0  0  0  0  0  0
    2.4683   36.6120    3.8973 O   0  0  0  0  0  0  0  0  0  0  0  0
    5.1539   36.8361   10.4750 C   0  0  0  0  0  0  0  0  0  0  0  0
  3  2  1  0
  4  1  1  0
  5  3  1  0
 10  7  1  0
 11  4  1  0
 11  8  1  0
 13  9  1  0
 15  6  1  0
 15 12  1  0
 16 10  1  0
 16 14  1  0
 17  3  1  0
 17  5  1  0
 19  7  1  0
 20  2  1  0
 20  5  1  0
 21  6  1  0
 21 15  1  0
 22  1  1  0
 23 10  1  0
 23 12  1  0
 24 11  1  0
 25  6  1  0
 25  7  1  0
 25 23  1  0
 26 12  1  0
 27  7  1  0
 27 18  1  0
 27 25  1  0
 29  6  1  0
 30 21  1  0
 31  2  1  0
 31  9  1  0
 31 22  1  0
 31 28  1  0
 32 30  1  0
 33  5  1  0
 34  9  1  0
 34 33  1  0
 35 13  1  0
 35 34  1  0
 36 15  1  0
 36 21  1  0
 37 29  1  0
 37 30  1  0
 38 12  1  0
 38 24  1  0
 39  1  1  0
 39  9  1  0
 40 36  1  0
 41 32  1  0
 42 17  1  0
 43 41  2  0
M  END
$$$$
