
     RDKit          3D

 30 38  0  0  0  0  0  0  0  0999 V2000
  -12.7442   35.1877    4.7476 O   0  0  0  0  0  0  0  0  0  0  0  0
  -15.4238   39.5837    4.1894 C   0  0  0  0  0  0  0  0  0  0  0  0
  -16.4907   40.6739    4.2008 C   0  0  0  0  0  0  0  0  0  0  0  0
  -15.3542   38.8996    2.8215 C   0  0  0  0  0  0  0  0  0  0  0  0
  -15.1222   37.3606    2.8149 C   0  0  0  0  0  0  0  0  0  0  0  0
  -17.4676   40.8212    5.3986 C   0  0  0  0  0  0  0  0  0  0  0  0
  -17.0802   40.3809    6.7834 C   0  0  0  0  0  0  0  0  0  0  0  0
  -15.7047   39.8809    7.2077 C   0  0  0  0  0  0  0  0  0  0  0  0
  -15.6848   39.7313    8.7322 C   0  0  0  0  0  0  0  0  0  0  0  0
  -14.2752   39.4908    9.2899 C   0  0  0  0  0  0  0  0  0  0  0  0
  -13.8272   38.0483    8.9936 C   0  0  0  0  0  0  0  0  0  0  0  0
  -16.4505   36.6335    2.5583 C   0  0  0  0  0  0  0  0  0  0  0  0
  -17.1253   41.8737    6.4694 C   0  0  0  0  0  0  0  0  0  0  0  0
  -16.1829   41.1814    8.8824 C   0  0  0  0  0  0  0  0  0  0  0  0
  -17.4731   37.0529    3.5645 C   0  0  0  0  0  0  0  0  0  0  0  0
  -14.2606   37.0008    9.9868 C   0  0  0  0  0  0  0  0  0  0  0  0
  -17.5806   38.3353    3.9235 C   0  0  0  0  0  0  0  0  0  0  0  0
  -13.1359   36.2426   10.6477 C   0  0  0  0  0  0  0  0  0  0  0  0
  -13.1311   36.2428   12.1974 C   0  0  0  0  0  0  0  0  0  0  0  0
  -12.7683   37.5353    9.9396 C   0  0  0  0  0  0  0  0  0  0  0  0
  -12.9807   37.6178   12.8704 C   0  0  0  0  0  0  0  0  0  0  0  0
  -16.6931   39.4303    3.3261 C   0  0  0  0  0  0  0  0  0  0  0  0
  -12.1069   33.9656    4.4132 C   0  0  0  0  0  0  0  0  0  0  0  0
  -13.8763   35.3957    3.9140 C   0  0  0  0  0  0  0  0  0  0  0  0
  -11.3847   31.6755    5.3334 C   0  0  0  0  0  0  0  0  0  0  0  0
  -14.3748   36.8403    4.0718 C   0  0  0  0  0  0  0  0  0  0  0  0
  -13.1512   33.0196    6.5288 C   0  0  0  0  0  0  0  0  0  0  0  0
  -10.0399   31.6578    4.6056 C   0  0  0  0  0  0  0  0  0  0  0  0
  -11.8756   33.1068    5.6829 C   0  0  0  0  0  0  0  0  0  0  0  0
  -16.0400   41.3311    7.3814 C   0  0  0  0  0  0  0  0  0  0  0  0
  3  2  1  0
  4  2  1  0
  5  4  1  0
  6  3  1  0
  7  6  1  0
  8  7  1  0
  9  8  1  0
 10  9  1  0
 11 10  1  0
 12  5  1  0
 13  6  1  0
 13  7  1  0
 14  9  1  0
 15 12  1  0
 16 11  1  0
 17 15  2  0
 18 16  1  0
 19 18  1  0
 20 11  1  0
 20 16  1  0
 20 18  1  0
 21 19  1  0
 22  2  1  0
 22  3  1  0
 22  4  1  0
 22 17  1  0
 23  1  1  0
 24  1  1  0
 26  5  1  0
 26 24  1  0
 28 25  1  0
 29 23  1  0
 29 25  1  0
 29 27  1  0
 30  7  1  0
 30  8  1  0
 30 13  1  0
 30 14  1  0
M  END
$$$$
