
     RDKit          3D

 41 51  0  0  0  0  0  0  0  0999 V2000
   -5.6650   22.7507    2.1338 C   0  0  0  0  0  0  0  0  0  0  0  0
   -1.6771   24.9054    2.9988 N   0  0  0  0  0  0  0  0  0  0  0  0
   -1.3810   26.1956    2.1707 C   0  0  0  0  0  0  0  0  0  0  0  0
   -5.0828   23.9497    2.8596 N   0  0  0  0  0  0  0  0  0  0  0  0
   -7.7665   25.2691    2.3474 N   0  0  0  0  0  0  0  0  0  0  0  0
   -8.8285   23.9065    3.5735 C   0  0  0  0  0  0  0  0  0  0  0  0
   -2.1470   26.2128    0.7866 C   0  0  0  0  0  0  0  0  0  0  0  0
   -1.9106   27.5293    2.7681 C   0  0  0  0  0  0  0  0  0  0  0  0
   -8.6472   23.5571    5.0182 N   0  0  0  0  0  0  0  0  0  0  0  0
   -7.5596   23.9388    2.9369 N   0  0  0  0  0  0  0  0  0  0  0  0
   -3.1261   27.2131    3.3780 N   0  0  0  0  0  0  0  0  0  0  0  0
   -2.8676   27.1238    4.8069 C   0  0  0  0  0  0  0  0  0  0  0  0
   -3.5682   21.1904    4.1862 O   0  0  0  0  0  0  0  0  0  0  0  0
   -4.0807   26.7058    2.2944 C   0  0  0  0  0  0  0  0  0  0  0  0
   -3.6811   22.8843    0.5852 O   0  0  0  0  0  0  0  0  0  0  0  0
   -2.4581   24.6869    4.2912 C   0  0  0  0  0  0  0  0  0  0  0  0
   -4.9590   22.2582    0.9385 C   0  0  0  0  0  0  0  0  0  0  0  0
   -4.5187   25.1125    2.0864 C   0  0  0  0  0  0  0  0  0  0  0  0
   -2.1467   19.7646    2.9888 O   0  0  0  0  0  0  0  0  0  0  0  0
    0.2000   26.2210    1.9461 C   0  0  0  0  0  0  0  0  0  0  0  0
   -7.9904   20.5427    1.7662 F   0  0  0  0  0  0  0  0  0  0  0  0
   -2.9479   19.8985    4.1109 C   0  0  0  0  0  0  0  0  0  0  0  0
   -4.8951   25.9050    5.4669 C   0  0  0  0  0  0  0  0  0  0  0  0
   -4.9211   21.3783    2.1569 C   0  0  0  0  0  0  0  0  0  0  0  0
   -3.2653   27.2209    1.0236 C   0  0  0  0  0  0  0  0  0  0  0  0
   -4.8747   21.0863    3.7152 C   0  0  0  0  0  0  0  0  0  0  0  0
   -5.2825   23.9320    4.2249 O   0  0  0  0  0  0  0  0  0  0  0  0
   -2.4101   28.3791    1.6234 C   0  0  0  0  0  0  0  0  0  0  0  0
   -8.1042   21.5637    2.6460 C   0  0  0  0  0  0  0  0  0  0  0  0
   -7.2975   22.8223    2.0928 C   0  0  0  0  0  0  0  0  0  0  0  0
   -9.7256   21.7653    3.0571 C   0  0  0  0  0  0  0  0  0  0  0  0
   -9.9575   23.1371    5.3934 C   0  0  0  0  0  0  0  0  0  0  0  0
  -10.8128   24.4263    5.4707 C   0  0  0  0  0  0  0  0  0  0  0  0
   -5.8496   25.1685    4.6280 C   0  0  0  0  0  0  0  0  0  0  0  0
  -10.7419   23.6109    6.7220 C   0  0  0  0  0  0  0  0  0  0  0  0
  -10.4276   24.8570    7.7108 C   0  0  0  0  0  0  0  0  0  0  0  0
   -9.0721   25.3925    3.0318 C   0  0  0  0  0  0  0  0  0  0  0  0
  -10.7286   22.7864    4.0856 C   0  0  0  0  0  0  0  0  0  0  0  0
   -3.3227   25.7735    5.1304 C   0  0  0  0  0  0  0  0  0  0  0  0
  -11.6945   24.0124    4.3637 C   0  0  0  0  0  0  0  0  0  0  0  0
   -9.9350   23.1701    2.9217 C   0  0  0  0  0  0  0  0  0  0  0  0
  3  2  1  0
  4  1  1  0
  7  3  1  0
  8  3  1  0
  9  6  1  0
 10  5  1  0
 10  6  1  0
 11  8  1  0
 12 11  1  0
 14 11  1  0
 16  2  1  0
 17  1  1  0
 17 15  1  0
 18  4  1  0
 18 14  1  0
 20  3  1  0
 22 13  1  0
 22 19  1  0
 24  1  1  0
 24 17  1  0
 25  7  1  0
 25 14  1  0
 26 13  1  0
 26 24  1  0
 27  4  1  0
 28  8  1  0
 28 25  1  0
 29 21  1  0
 30  1  1  0
 30 10  1  0
 30 29  1  0
 31 29  1  0
 32  9  1  0
 33 32  1  0
 34 23  1  0
 34 27  1  0
 35 32  1  0
 35 33  1  0
 36 35  1  0
 37  5  1  0
 37  6  1  0
 38 31  1  0
 38 32  1  0
 39 12  1  0
 39 16  1  0
 39 23  1  0
 40 33  1  0
 40 38  1  0
 41  6  1  0
 41 31  1  0
 41 38  1  0
M  END
$$$$
