
     RDKit          3D

 31 32  0  0  0  0  0  0  0  0999 V2000
   -9.4795   36.7485   -4.5382 O   0  0  0  0  0  0  0  0  0  0  0  0
  -12.1979   37.5995   -3.1945 C   0  0  0  0  0  0  0  0  0  0  0  0
  -13.8924   47.6261    4.7643 C   0  0  0  0  0  0  0  0  0  0  0  0
   -7.6212   40.7585    3.4916 N   0  0  0  0  0  0  0  0  0  0  0  0
   -5.9828   37.4397   -0.1980 C   0  0  0  0  0  0  0  0  0  0  0  0
   -7.7617   39.2140   -0.1343 C   0  0  0  0  0  0  0  0  0  0  0  0
  -11.8719   36.9963    6.4311 C   0  0  0  0  0  0  0  0  0  0  0  0
    0.2030   35.7555   -1.0116 C   0  0  0  0  0  0  0  0  0  0  0  0
  -21.7826   40.8475   -1.0465 C   0  0  0  0  0  0  0  0  0  0  0  0
  -21.5665   41.9702    2.2473 C   0  0  0  0  0  0  0  0  0  0  0  0
   -4.3483   42.8879    2.6263 C   0  0  0  0  0  0  0  0  0  0  0  0
   -0.6962   46.1531    1.8683 C   0  0  0  0  0  0  0  0  0  0  0  0
  -21.2686   37.2494    4.2174 C   0  0  0  0  0  0  0  0  0  0  0  0
   -2.6762   38.9998   -1.9118 C   0  0  0  0  0  0  0  0  0  0  0  0
   -7.5036   37.6541   -2.9696 C   0  0  0  0  0  0  0  0  0  0  0  0
  -11.5473   32.6535    0.6097 C   0  0  0  0  0  0  0  0  0  0  0  0
  -17.1267   33.9822   -0.2737 C   0  0  0  0  0  0  0  0  0  0  0  0
  -18.2402   36.4624    0.7519 C   0  0  0  0  0  0  0  0  0  0  0  0
   -8.2267   33.9765   -1.8699 C   0  0  0  0  0  0  0  0  0  0  0  0
  -10.1586   36.0963    3.2317 C   0  0  0  0  0  0  0  0  0  0  0  0
  -15.5287   34.3530   -5.8565 C   0  0  0  0  0  0  0  0  0  0  0  0
   -3.1848   39.2532   10.0371 C   0  0  0  0  0  0  0  0  0  0  0  0
  -10.7285   42.0471    9.5279 C   0  0  0  0  0  0  0  0  0  0  0  0
  -22.6843   43.4719   -1.2515 C   0  0  0  0  0  0  0  0  0  0  0  0
   -2.6207   44.9483    3.5047 C   0  0  0  0  0  0  0  0  0  0  0  0
    0.1932   36.2931   10.9969 C   0  0  0  0  0  0  0  0  0  0  0  0
  -17.8179   46.8233   -0.7204 C   0  0  0  0  0  0  0  0  0  0  0  0
  -17.2725   36.2403    2.9407 C   0  0  0  0  0  0  0  0  0  0  0  0
   -2.4374   43.2203    5.8636 C   0  0  0  0  0  0  0  0  0  0  0  0
  -13.8220   32.0253   -9.1955 C   0  0  0  0  0  0  0  0  0  0  0  0
   -4.4759   36.6609    7.8787 C   0  0  0  0  0  0  0  0  0  0  0  0
  6  2  1  0
  8  6  1  0
 10  9  1  0
 11  4  1  0
 12 11  1  0
 14  5  1  0
 15  2  1  0
 15  5  1  0
 17 16  1  0
 18 13  1  0
 18 17  1  0
 19 14  1  0
 20  1  1  0
 20  7  1  0
 20 19  1  0
 21 18  1  0
 23  3  1  0
 23  4  1  0
 24  9  1  0
 25 11  1  0
 25 12  1  0
 26 22  1  0
 27  3  1  0
 27 10  1  0
 28  7  1  0
 28 10  1  0
 28 13  1  0
 28 17  1  0
 29 12  1  0
 29 22  1  0
 30 21  1  0
 31 22  2  0
M  END
$$$$
