
     RDKit          3D

 30 33  0  0  0  0  0  0  0  0999 V2000
   -5.2861   23.4534    8.6922 O   0  0  0  0  0  0  0  0  0  0  0  0
   -6.8013   23.4868    8.5173 C   0  0  0  0  0  0  0  0  0  0  0  0
   -7.0324   22.4454    7.5455 O   0  0  0  0  0  0  0  0  0  0  0  0
   -7.4921   22.7919   11.4691 C   0  0  0  0  0  0  0  0  0  0  0  0
   -7.2184   24.7554    7.9499 O   0  0  0  0  0  0  0  0  0  0  0  0
   -8.1376   26.0319   12.2827 O   0  0  0  0  0  0  0  0  0  0  0  0
   -6.7763   22.8824    6.1965 C   0  0  0  0  0  0  0  0  0  0  0  0
   -6.1503   26.4725   10.8419 N   0  0  0  0  0  0  0  0  0  0  0  0
   -6.4983   24.0126   12.0064 C   0  0  0  0  0  0  0  0  0  0  0  0
   -8.8878   23.6432   11.1031 C   0  0  0  0  0  0  0  0  0  0  0  0
   -6.9714   25.5353   11.6903 C   0  0  0  0  0  0  0  0  0  0  0  0
   -8.2589   24.0331    5.5168 Br  0  0  0  0  0  0  0  0  0  0  0  0
   -7.2932   24.4098   10.9237 C   0  0  0  0  0  0  0  0  0  0  0  0
   -7.9855   21.3236   11.3927 C   0  0  0  0  0  0  0  0  0  0  0  0
   -8.0841   23.3217    9.8359 C   0  0  0  0  0  0  0  0  0  0  0  0
   -8.4658   20.4844   10.0880 C   0  0  0  0  0  0  0  0  0  0  0  0
   -9.4354   21.4636   13.3135 N   0  0  0  0  0  0  0  0  0  0  0  0
   -6.0147   20.0511   10.0935 C   0  0  0  0  0  0  0  0  0  0  0  0
   -5.2435   19.5378   10.9550 N   0  0  0  0  0  0  0  0  0  0  0  0
  -10.5324   21.4066   14.4738 C   0  0  0  0  0  0  0  0  0  0  0  0
  -12.3299   23.0233   12.8811 C   0  0  0  0  0  0  0  0  0  0  0  0
   -9.1981   22.0398   11.8227 C   0  0  0  0  0  0  0  0  0  0  0  0
   -7.3859   19.4400    9.8528 C   0  0  0  0  0  0  0  0  0  0  0  0
  -11.7817   20.3369   14.3053 C   0  0  0  0  0  0  0  0  0  0  0  0
  -13.0550   24.2348   15.2926 C   0  0  0  0  0  0  0  0  0  0  0  0
  -12.0149   23.6844   14.2313 C   0  0  0  0  0  0  0  0  0  0  0  0
  -14.6288   22.5773   12.6428 O   0  0  0  0  0  0  0  0  0  0  0  0
  -13.4318   22.1385   13.1990 N   0  0  0  0  0  0  0  0  0  0  0  0
  -10.9302   22.8206   15.0089 C   0  0  0  0  0  0  0  0  0  0  0  0
  -13.0567   20.6990   13.3702 C   0  0  0  0  0  0  0  0  0  0  0  0
  2  1  1  0
  3  2  1  0
  5  2  1  0
  7  3  1  0
  9  4  1  0
 11  6  1  0
 11  8  1  0
 11  9  1  0
 12  7  1  0
 13  9  1  0
 13 10  1  0
 13 11  1  0
 14  4  1  0
 15  2  1  0
 15  4  1  0
 15 10  1  0
 16 14  1  0
 19 18  2  0
 20 17  1  0
 22 10  1  0
 22 14  1  0
 22 17  1  0
 23 16  1  0
 23 18  1  0
 24 20  1  0
 26 21  1  0
 26 25  1  0
 28 21  1  0
 28 27  1  0
 29 20  1  0
 29 26  1  0
 30 24  1  0
 30 28  1  0
M  END
$$$$
