
     RDKit          3D

 45 50  0  0  0  0  0  0  0  0999 V2000
    0.6284   17.6912    1.9911 C   0  0  0  0  0  0  0  0  0  0  0  0
    0.0259   16.7553    3.0261 N   0  0  0  0  0  0  0  0  0  0  0  0
   -0.0843   19.0380    1.9649 N   0  0  0  0  0  0  0  0  0  0  0  0
   -0.6671   19.4415    3.2673 N   0  0  0  0  0  0  0  0  0  0  0  0
   -0.0895   20.0213    0.8049 C   0  0  0  0  0  0  0  0  0  0  0  0
   -1.3794   19.8837   -0.0612 C   0  0  0  0  0  0  0  0  0  0  0  0
   -1.9053   18.2917   -0.5991 C   0  0  0  0  0  0  0  0  0  0  0  0
    0.2002   15.2909    3.6682 C   0  0  0  0  0  0  0  0  0  0  0  0
   -3.3489   15.1073    4.2596 C   0  0  0  0  0  0  0  0  0  0  0  0
   -2.6615   16.7835    4.7080 C   0  0  0  0  0  0  0  0  0  0  0  0
   -2.7605   15.6061    0.6059 C   0  0  0  0  0  0  0  0  0  0  0  0
   -0.6675   14.3630    2.9482 C   0  0  0  0  0  0  0  0  0  0  0  0
   -1.9615   21.3330   -0.8565 C   0  0  0  0  0  0  0  0  0  0  0  0
   -3.5155   21.7887   -0.9539 C   0  0  0  0  0  0  0  0  0  0  0  0
   -3.9112   23.0715   -1.9117 C   0  0  0  0  0  0  0  0  0  0  0  0
   -0.7710   17.3325   -1.0010 C   0  0  0  0  0  0  0  0  0  0  0  0
    0.8666   19.3826    6.2665 C   0  0  0  0  0  0  0  0  0  0  0  0
   -3.9873   14.5127   -0.7650 N   0  0  0  0  0  0  0  0  0  0  0  0
   -3.4684   22.2420    0.5494 C   0  0  0  0  0  0  0  0  0  0  0  0
   -4.4945   20.1056    1.1951 Al  0  0  0  0  0  3  0  0  0  0  0  0
    1.0459   21.0243    5.3431 C   0  0  0  0  0  0  0  0  0  0  0  0
   -0.0192   22.0502    6.1634 C   0  0  0  0  0  0  0  0  0  0  0  0
   -1.4933   21.8331    6.9654 C   0  0  0  0  0  0  0  0  0  0  0  0
   -2.8313   22.3475    6.2766 C   0  0  0  0  0  0  0  0  0  0  0  0
   -2.1821   20.4660    7.1059 C   0  0  0  0  0  0  0  0  0  0  0  0
   -4.1568   19.6865    5.4953 C   0  0  0  0  0  0  0  0  0  0  0  0
   -5.6560   12.5766   -0.1048 C   0  0  0  0  0  0  0  0  0  0  0  0
   -1.8800   14.6349    4.7054 C   0  0  0  0  0  0  0  0  0  0  0  0
   -0.6248   17.6933    5.6293 C   0  0  0  0  0  0  0  0  0  0  0  0
   -2.6131   13.5470   -0.9983 C   0  0  0  0  0  0  0  0  0  0  0  0
   -2.3220   14.2813    3.4042 C   0  0  0  0  0  0  0  0  0  0  0  0
   -3.6396   21.0099    6.4342 C   0  0  0  0  0  0  0  0  0  0  0  0
   -0.6653   13.5212    0.1650 C   0  0  0  0  0  0  0  0  0  0  0  0
   -1.7645   20.1681    3.3511 C   0  0  0  0  0  0  0  0  0  0  0  0
   -1.9695   22.6822    0.2002 C   0  0  0  0  0  0  0  0  0  0  0  0
   -5.7176   19.3660    4.9878 C   0  0  0  0  0  0  0  0  0  0  0  0
   -3.3203   12.1105   -1.0021 C   0  0  0  0  0  0  0  0  0  0  0  0
   -1.7223   17.0931    0.3962 C   0  0  0  0  0  0  0  0  0  0  0  0
   -5.6229   10.8665   -1.5801 C   0  0  0  0  0  0  0  0  0  0  0  0
   -4.3546   14.2006    0.6048 C   0  0  0  0  0  0  0  0  0  0  0  0
   -2.9564   11.3728    0.6162 C   0  0  0  0  0  0  0  0  0  0  0  0
   -7.0413    9.5498   -2.1852 C   0  0  0  0  0  0  0  0  0  0  0  0
   -0.6708   14.9387    5.0934 C   0  0  0  0  0  0  0  0  0  0  0  0
   -4.5248   12.0451   -2.2389 C   0  0  0  0  0  0  0  0  0  0  0  0
   -1.7903   10.1722    0.3366 C   0  0  0  0  0  0  0  0  0  0  0  0
  2  1  1  0
  3  1  1  0
  4  3  1  0
  5  3  1  0
  6  5  1  0
  7  6  1  0
  8  2  1  0
 10  9  1  0
 12  8  1  0
 13  6  1  0
 14 13  1  0
 15 14  1  0
 16  7  1  0
 19 14  1  0
 20 19  1  0
 21 17  1  0
 22 21  1  0
 23 22  1  0
 24 23  1  0
 25 23  1  0
 28  9  1  0
 29 10  1  0
 29 17  1  0
 30 18  1  0
 31  9  1  0
 31 12  1  0
 31 28  1  0
 32 24  1  0
 32 25  1  0
 32 26  1  0
 33 30  1  0
 34  4  2  0
 35 13  1  0
 35 19  1  0
 36 26  1  0
 37 30  1  0
 38  7  1  0
 38 11  1  0
 38 16  1  0
 39 27  1  0
 40 11  1  0
 40 18  1  0
 40 27  1  0
 41 37  1  0
 42 39  1  0
 43  8  1  0
 43 28  2  0
 44 37  1  0
 44 39  1  0
 45 41  1  0
M  END
$$$$
