
     RDKit          3D

 32 42  0  0  0  0  0  0  0  0999 V2000
    0.0626   25.9613    1.8381 N   0  0  0  0  0  0  0  0  0  0  0  0
    0.2752   24.5713    2.7325 C   0  0  0  0  0  0  0  0  0  0  0  0
    1.0528   27.1856    1.1227 C   0  0  0  0  0  0  0  0  0  0  0  0
    0.7284   27.0441   -0.2337 N   0  0  0  0  0  0  0  0  0  0  0  0
    0.5830   28.6206    1.4522 N   0  0  0  0  0  0  0  0  0  0  0  0
    1.5761   27.7984   -1.0964 C   0  0  0  0  0  0  0  0  0  0  0  0
    1.4688   23.8942    3.2575 N   0  0  0  0  0  0  0  0  0  0  0  0
    0.3631   29.5522    0.2491 C   0  0  0  0  0  0  0  0  0  0  0  0
   -1.1764   24.4043    2.7951 N   0  0  0  0  0  0  0  0  0  0  0  0
    3.0364   27.4302   -1.2035 N   0  0  0  0  0  0  0  0  0  0  0  0
    1.3934   29.2935   -0.9169 C   0  0  0  0  0  0  0  0  0  0  0  0
    3.3197   25.0154   -0.3981 C   0  0  0  0  0  0  0  0  0  0  0  0
    3.1089   24.2779    3.2723 C   0  0  0  0  0  0  0  0  0  0  0  0
    1.5002   25.4503   -1.9132 C   0  0  0  0  0  0  0  0  0  0  0  0
    3.5443   25.8075    2.7292 C   0  0  0  0  0  0  0  0  0  0  0  0
    3.5609   26.5473   -0.1354 C   0  0  0  0  0  0  0  0  0  0  0  0
    4.0062   28.4230   -3.1443 S   0  0  0  0  0  4  0  0  0  0  0  0
    3.3498   24.3617    0.8076 O   0  0  0  0  0  0  0  0  0  0  0  0
    1.7857   24.5495   -3.0938 C   0  0  0  0  0  0  0  0  0  0  0  0
    3.1379   26.8744    3.4845 O   0  0  0  0  0  0  0  0  0  0  0  0
    1.9275   26.2586    3.1719 C   0  0  0  0  0  0  0  0  0  0  0  0
    1.3666   29.3869    2.4529 C   0  0  0  0  0  0  0  0  0  0  0  0
   -1.5139   29.8328   -1.6378 C   0  0  0  0  0  0  0  0  0  0  0  0
   -1.1558   29.5474   -0.1569 C   0  0  0  0  0  0  0  0  0  0  0  0
    2.0269   24.8315    1.1366 C   0  0  0  0  0  0  0  0  0  0  0  0
    1.1811   23.1667   -2.8578 C   0  0  0  0  0  0  0  0  0  0  0  0
    2.0317   26.9121   -2.1597 C   0  0  0  0  0  0  0  0  0  0  0  0
   -1.6273   28.5739   -2.5003 C   0  0  0  0  0  0  0  0  0  0  0  0
    1.8676   24.8294   -0.4889 C   0  0  0  0  0  0  0  0  0  0  0  0
   -1.3062   25.6679    2.1171 C   0  0  0  0  0  0  0  0  0  0  0  0
    2.9862   27.0016    1.2673 C   0  0  0  0  0  0  0  0  0  0  0  0
   -2.1493   25.5117    0.8417 C   0  0  0  0  0  0  0  0  0  0  0  0
  2  1  1  0
  3  1  1  0
  4  3  1  0
  5  3  1  0
  6  4  1  0
  7  2  2  0
  8  5  1  0
  9  2  1  0
 10  6  1  0
 11  6  1  0
 11  8  1  0
 13  7  1  0
 15 13  2  0
 16 10  1  0
 16 12  1  0
 17 14  1  0
 18 12  1  0
 19 14  1  0
 20 15  1  0
 21 20  1  0
 22  5  1  0
 24  8  1  0
 24 23  1  0
 25 17  1  0
 25 18  1  0
 25 21  1  0
 26 17  1  0
 26 19  1  0
 27  6  1  0
 27 10  1  0
 27 14  1  0
 28 23  1  0
 29 12  1  0
 29 14  1  0
 29 17  1  0
 29 25  1  0
 30  1  1  0
 30  9  1  0
 31  3  1  0
 31 15  1  0
 31 16  1  0
 32 30  1  0
M  END
$$$$
