
     RDKit          3D

 33 39  0  0  0  0  0  0  0  0999 V2000
   21.5656  -19.6741    2.8587 O   0  0  0  0  0  0  0  0  0  0  0  0
   20.6711  -20.4595    2.0664 C   0  0  0  0  0  0  0  0  0  0  0  0
   20.0565  -21.5181    2.9210 C   0  0  0  0  0  0  0  0  0  0  0  0
   20.6000  -21.4313    4.3335 C   0  0  0  0  0  0  0  0  0  0  0  0
   23.1761  -22.8505    3.3724 Se  0  0  0  0  0  2  0  0  0  0  0  0
   22.0739  -21.7432    4.5535 C   0  0  0  0  0  0  0  0  0  0  0  0
   20.4036  -20.1693    3.4861 C   0  0  0  0  0  0  0  0  0  0  0  0
   22.3880  -23.0642    5.2389 C   0  0  0  0  0  0  0  0  0  0  0  0
   20.3346  -24.7579    6.1911 C   0  0  0  0  0  0  0  0  0  0  0  0
   17.8998  -25.4591    5.7342 N   0  0  0  0  0  0  0  0  0  0  0  0
   16.8900  -24.8664    4.7710 C   0  0  0  0  0  0  0  0  0  0  0  0
   15.6136  -25.5247    4.2487 N   0  0  0  0  0  0  0  0  0  0  0  0
   20.1294  -23.8052    7.4155 C   0  0  0  0  0  0  0  0  0  0  0  0
   18.7440  -23.0833    7.4718 C   0  0  0  0  0  0  0  0  0  0  0  0
   14.2761  -24.9180    4.6558 C   0  0  0  0  0  0  0  0  0  0  0  0
   21.5610  -24.4054    5.2339 C   0  0  0  0  0  0  0  0  0  0  0  0
   19.1577  -24.9313    5.2919 N   0  0  0  0  0  0  0  0  0  0  0  0
   13.6262  -23.7678    3.6653 C   0  0  0  0  0  0  0  0  0  0  0  0
   15.4727  -26.9792    4.4098 C   0  0  0  0  0  0  0  0  0  0  0  0
   18.8157  -22.1707    8.4601 F   0  0  0  0  0  0  0  0  0  0  0  0
   14.5143  -23.0304    2.5930 C   0  0  0  0  0  0  0  0  0  0  0  0
   13.3946  -26.1223    5.3370 C   0  0  0  0  0  0  0  0  0  0  0  0
   12.2421  -27.1993    5.2887 C   0  0  0  0  0  0  0  0  0  0  0  0
   11.2266  -27.1347    6.4842 C   0  0  0  0  0  0  0  0  0  0  0  0
   10.9452  -25.7286    7.0145 C   0  0  0  0  0  0  0  0  0  0  0  0
   12.2555  -26.2114    4.2219 C   0  0  0  0  0  0  0  0  0  0  0  0
   11.7225  -27.9593    7.6753 C   0  0  0  0  0  0  0  0  0  0  0  0
   14.5978  -27.1247    5.5775 C   0  0  0  0  0  0  0  0  0  0  0  0
   12.8497  -27.2880    8.2227 O   0  0  0  0  0  0  0  0  0  0  0  0
   11.5447  -25.2608    8.1636 C   0  0  0  0  0  0  0  0  0  0  0  0
   12.1291  -29.3933    7.2976 C   0  0  0  0  0  0  0  0  0  0  0  0
   12.3208  -26.2268    8.9981 C   0  0  0  0  0  0  0  0  0  0  0  0
   11.6914  -30.4680    7.9399 C   0  0  0  0  0  0  0  0  0  0  0  0
  2  1  1  0
  3  2  1  0
  4  3  1  0
  6  4  1  0
  6  5  1  0
  7  1  1  0
  7  2  1  0
  7  3  1  0
  7  4  1  0
  8  5  1  0
  8  6  1  0
 11 10  1  0
 12 11  1  0
 13  9  1  0
 14 13  1  0
 15 12  1  0
 16  8  1  0
 16  9  1  0
 17  9  1  0
 17 10  1  0
 18 15  1  0
 19 12  1  0
 20 14  1  0
 21 18  1  0
 22 15  1  0
 23 22  1  0
 24 23  1  0
 25 24  1  0
 26 22  1  0
 26 23  1  0
 27 24  1  0
 28 19  1  0
 28 22  1  0
 29 27  1  0
 30 25  2  0
 31 27  1  0
 32 29  1  0
 32 30  1  0
 33 31  2  0
M  END
$$$$
